<?xml version='1.0' encoding='utf-8'?>
<routes>
  <vType id="car" accel="1.5" decel="3.0" sigma="0.6" length="4.5" width="1.7" maxSpeed="15.0" vClass="passenger" guiShape="passenger" />
  <vType id="mtw" accel="2.0" decel="4.0" sigma="0.9" length="2.2" width="0.9" maxSpeed="18.0" vClass="motorcycle" guiShape="motorcycle" />
  <vType id="auto" accel="1.6" decel="3.0" sigma="0.8" length="3.0" width="1.2" maxSpeed="13.0" vClass="motorcycle" guiShape="motorcycle" />
  <vType id="truck" accel="0.8" decel="2.0" sigma="0.5" length="8.0" width="2.5" maxSpeed="11.0" vClass="truck" guiShape="truck" />
  <vType id="bus" accel="1.0" decel="2.0" sigma="0.6" length="12.0" width="2.6" maxSpeed="12.0" vClass="bus" guiShape="bus" />
  <vType id="bike" accel="1.0" decel="2.0" sigma="0.9" length="1.8" width="0.6" maxSpeed="6.0" vClass="bicycle" guiShape="bicycle" />
  <route id="east_main" edges="A0_A1 A1_A2 A2_A3 A3_A4 A4_A5" />
  <route id="west_main" edges="A5_A4 A4_A3 A3_A2 A2_A1 A1_A0" />
  <route id="south2east" edges="S2S_A2 A2_A3 A3_A4" />
  <route id="north2west" edges="S2N_A2 A2_A1 A1_A0" />
  <route id="south4north" edges="S4S_A4 A4_S4N" />
  <route id="north4east" edges="S4N_A4 A4_A5" />
  <vehicle id="veh_1" type="car" route="east_main" depart="0.265" departLane="random" departSpeed="max" />
  <vehicle id="veh_2" type="auto" route="north2west" depart="0.741" departLane="random" departSpeed="max" />
  <vehicle id="veh_3" type="car" route="north4east" depart="1.766" departLane="random" departSpeed="max" />
  <vehicle id="veh_4" type="car" route="north4east" depart="1.939" departLane="random" departSpeed="max" />
  <vehicle id="veh_5" type="bus" route="south2east" depart="2.859" departLane="random" departSpeed="max" />
  <vehicle id="veh_6" type="bus" route="north4east" depart="3.323" departLane="random" departSpeed="max" />
  <vehicle id="veh_7" type="car" route="north4east" depart="3.751" departLane="random" departSpeed="max" />
  <vehicle id="veh_8" type="truck" route="north2west" depart="4.551" departLane="random" departSpeed="max" />
  <vehicle id="veh_9" type="car" route="east_main" depart="5.335" departLane="random" departSpeed="max" />
  <vehicle id="veh_10" type="mtw" route="north2west" depart="5.891" departLane="random" departSpeed="max" />
  <vehicle id="veh_11" type="auto" route="west_main" depart="6.575" departLane="random" departSpeed="max" />
  <vehicle id="veh_12" type="car" route="south4north" depart="7.107" departLane="random" departSpeed="max" />
  <vehicle id="veh_13" type="car" route="west_main" depart="7.690" departLane="random" departSpeed="max" />
  <vehicle id="veh_14" type="mtw" route="east_main" depart="7.944" departLane="random" departSpeed="max" />
  <vehicle id="veh_15" type="car" route="south4north" depart="8.802" departLane="random" departSpeed="max" />
  <vehicle id="veh_16" type="car" route="south4north" depart="9.498" departLane="random" departSpeed="max" />
  <vehicle id="veh_17" type="truck" route="north2west" depart="9.827" departLane="random" departSpeed="max" />
  <vehicle id="veh_18" type="car" route="north2west" depart="10.722" departLane="random" departSpeed="max" />
  <vehicle id="veh_19" type="truck" route="north2west" depart="11.051" departLane="random" departSpeed="max" />
  <vehicle id="veh_20" type="mtw" route="west_main" depart="11.663" departLane="random" departSpeed="max" />
  <vehicle id="veh_21" type="car" route="north2west" depart="12.166" departLane="random" departSpeed="max" />
  <vehicle id="veh_22" type="car" route="west_main" depart="13.127" departLane="random" departSpeed="max" />
  <vehicle id="veh_23" type="car" route="east_main" depart="13.787" departLane="random" departSpeed="max" />
  <vehicle id="veh_24" type="mtw" route="east_main" depart="14.199" departLane="random" departSpeed="max" />
  <vehicle id="veh_25" type="mtw" route="north4east" depart="14.632" departLane="random" departSpeed="max" />
  <vehicle id="veh_26" type="car" route="north2west" depart="15.436" departLane="random" departSpeed="max" />
  <vehicle id="veh_27" type="car" route="west_main" depart="15.628" departLane="random" departSpeed="max" />
  <vehicle id="veh_28" type="car" route="west_main" depart="16.472" departLane="random" departSpeed="max" />
  <vehicle id="veh_29" type="truck" route="south2east" depart="17.247" departLane="random" departSpeed="max" />
  <vehicle id="veh_30" type="mtw" route="south2east" depart="17.484" departLane="random" departSpeed="max" />
  <vehicle id="veh_31" type="car" route="west_main" depart="18.072" departLane="random" departSpeed="max" />
  <vehicle id="veh_32" type="car" route="south4north" depart="18.999" departLane="random" departSpeed="max" />
  <vehicle id="veh_33" type="mtw" route="south2east" depart="19.772" departLane="random" departSpeed="max" />
  <vehicle id="veh_34" type="auto" route="north4east" depart="20.108" departLane="random" departSpeed="max" />
  <vehicle id="veh_35" type="mtw" route="south4north" depart="20.487" departLane="random" departSpeed="max" />
  <vehicle id="veh_36" type="bike" route="south2east" depart="21.437" departLane="random" departSpeed="max" />
  <vehicle id="veh_37" type="mtw" route="west_main" depart="22.006" departLane="random" departSpeed="max" />
  <vehicle id="veh_38" type="mtw" route="north4east" depart="22.327" departLane="random" departSpeed="max" />
  <vehicle id="veh_39" type="mtw" route="north4east" depart="23.391" departLane="random" departSpeed="max" />
  <vehicle id="veh_40" type="car" route="north2west" depart="23.637" departLane="random" departSpeed="max" />
  <vehicle id="veh_41" type="car" route="south2east" depart="24.239" departLane="random" departSpeed="max" />
  <vehicle id="veh_42" type="car" route="west_main" depart="24.979" departLane="random" departSpeed="max" />
  <vehicle id="veh_43" type="car" route="west_main" depart="25.351" departLane="random" departSpeed="max" />
  <vehicle id="veh_44" type="auto" route="north2west" depart="26.335" departLane="random" departSpeed="max" />
  <vehicle id="veh_45" type="truck" route="west_main" depart="26.595" departLane="random" departSpeed="max" />
  <vehicle id="veh_46" type="car" route="south2east" depart="27.353" departLane="random" departSpeed="max" />
  <vehicle id="veh_47" type="car" route="west_main" depart="27.853" departLane="random" departSpeed="max" />
  <vehicle id="veh_48" type="bus" route="north4east" depart="28.613" departLane="random" departSpeed="max" />
  <vehicle id="veh_49" type="car" route="south4north" depart="29.221" departLane="random" departSpeed="max" />
  <vehicle id="veh_50" type="car" route="north4east" depart="29.547" departLane="random" departSpeed="max" />
  <vehicle id="veh_51" type="car" route="south4north" depart="30.414" departLane="random" departSpeed="max" />
  <vehicle id="veh_52" type="bus" route="south4north" depart="30.794" departLane="random" departSpeed="max" />
  <vehicle id="veh_53" type="car" route="south4north" depart="31.474" departLane="random" departSpeed="max" />
  <vehicle id="veh_54" type="truck" route="south4north" depart="31.877" departLane="random" departSpeed="max" />
  <vehicle id="veh_55" type="car" route="south2east" depart="32.479" departLane="random" departSpeed="max" />
  <vehicle id="veh_56" type="mtw" route="west_main" depart="33.074" departLane="random" departSpeed="max" />
  <vehicle id="veh_57" type="car" route="south4north" depart="33.752" departLane="random" departSpeed="max" />
  <vehicle id="veh_58" type="mtw" route="north2west" depart="34.503" departLane="random" departSpeed="max" />
  <vehicle id="veh_59" type="car" route="north2west" depart="35.197" departLane="random" departSpeed="max" />
  <vehicle id="veh_60" type="mtw" route="south2east" depart="35.744" departLane="random" departSpeed="max" />
  <vehicle id="veh_61" type="car" route="west_main" depart="36.220" departLane="random" departSpeed="max" />
  <vehicle id="veh_62" type="car" route="north4east" depart="37.020" departLane="random" departSpeed="max" />
  <vehicle id="veh_63" type="car" route="west_main" depart="37.773" departLane="random" departSpeed="max" />
  <vehicle id="veh_64" type="car" route="south2east" depart="37.878" departLane="random" departSpeed="max" />
  <vehicle id="veh_65" type="auto" route="south2east" depart="38.508" departLane="random" departSpeed="max" />
  <vehicle id="veh_66" type="truck" route="east_main" depart="39.228" departLane="random" departSpeed="max" />
  <vehicle id="veh_67" type="car" route="south4north" depart="40.115" departLane="random" departSpeed="max" />
  <vehicle id="veh_68" type="auto" route="south4north" depart="40.679" departLane="random" departSpeed="max" />
  <vehicle id="veh_69" type="car" route="south2east" depart="41.112" departLane="random" departSpeed="max" />
  <vehicle id="veh_70" type="car" route="north2west" depart="41.943" departLane="random" departSpeed="max" />
  <vehicle id="veh_71" type="car" route="north2west" depart="42.112" departLane="random" departSpeed="max" />
  <vehicle id="veh_72" type="car" route="south2east" depart="43.104" departLane="random" departSpeed="max" />
  <vehicle id="veh_73" type="car" route="west_main" depart="43.293" departLane="random" departSpeed="max" />
  <vehicle id="veh_74" type="bike" route="south2east" depart="44.102" departLane="random" departSpeed="max" />
  <vehicle id="veh_75" type="car" route="south2east" depart="44.741" departLane="random" departSpeed="max" />
  <vehicle id="veh_76" type="truck" route="west_main" depart="45.337" departLane="random" departSpeed="max" />
  <vehicle id="veh_77" type="car" route="north2west" depart="46.175" departLane="random" departSpeed="max" />
  <vehicle id="veh_78" type="mtw" route="south2east" depart="46.643" departLane="random" departSpeed="max" />
  <vehicle id="veh_79" type="car" route="south2east" depart="47.038" departLane="random" departSpeed="max" />
  <vehicle id="veh_80" type="mtw" route="north2west" depart="47.818" departLane="random" departSpeed="max" />
  <vehicle id="veh_81" type="truck" route="north2west" depart="48.426" departLane="random" departSpeed="max" />
  <vehicle id="veh_82" type="car" route="south2east" depart="48.773" departLane="random" departSpeed="max" />
  <vehicle id="veh_83" type="mtw" route="north4east" depart="49.334" departLane="random" departSpeed="max" />
  <vehicle id="veh_84" type="car" route="east_main" depart="50.091" departLane="random" departSpeed="max" />
  <vehicle id="veh_85" type="auto" route="south4north" depart="50.742" departLane="random" departSpeed="max" />
  <vehicle id="veh_86" type="car" route="south4north" depart="51.252" departLane="random" departSpeed="max" />
  <vehicle id="veh_87" type="car" route="east_main" depart="52.165" departLane="random" departSpeed="max" />
  <vehicle id="veh_88" type="car" route="west_main" depart="52.497" departLane="random" departSpeed="max" />
  <vehicle id="veh_89" type="auto" route="south2east" depart="52.834" departLane="random" departSpeed="max" />
  <vehicle id="veh_90" type="car" route="east_main" depart="53.518" departLane="random" departSpeed="max" />
  <vehicle id="veh_91" type="car" route="north4east" depart="54.067" departLane="random" departSpeed="max" />
  <vehicle id="veh_92" type="truck" route="east_main" depart="55.016" departLane="random" departSpeed="max" />
  <vehicle id="veh_93" type="auto" route="south4north" depart="55.322" departLane="random" departSpeed="max" />
  <vehicle id="veh_94" type="car" route="north2west" depart="56.067" departLane="random" departSpeed="max" />
  <vehicle id="veh_95" type="mtw" route="south2east" depart="56.407" departLane="random" departSpeed="max" />
  <vehicle id="veh_96" type="truck" route="east_main" depart="57.067" departLane="random" departSpeed="max" />
  <vehicle id="veh_97" type="mtw" route="north4east" depart="57.805" departLane="random" departSpeed="max" />
  <vehicle id="veh_98" type="car" route="south2east" depart="58.557" departLane="random" departSpeed="max" />
  <vehicle id="veh_99" type="car" route="north4east" depart="59.276" departLane="random" departSpeed="max" />
  <vehicle id="veh_100" type="car" route="south4north" depart="59.945" departLane="random" departSpeed="max" />
  <vehicle id="veh_101" type="car" route="north2west" depart="60.599" departLane="random" departSpeed="max" />
  <vehicle id="veh_102" type="car" route="south4north" depart="61.015" departLane="random" departSpeed="max" />
  <vehicle id="veh_103" type="car" route="north4east" depart="61.490" departLane="random" departSpeed="max" />
  <vehicle id="veh_104" type="car" route="north2west" depart="61.877" departLane="random" departSpeed="max" />
  <vehicle id="veh_105" type="car" route="west_main" depart="62.788" departLane="random" departSpeed="max" />
  <vehicle id="veh_106" type="car" route="east_main" depart="63.488" departLane="random" departSpeed="max" />
  <vehicle id="veh_107" type="car" route="west_main" depart="64.144" departLane="random" departSpeed="max" />
  <vehicle id="veh_108" type="mtw" route="south2east" depart="64.648" departLane="random" departSpeed="max" />
  <vehicle id="veh_109" type="car" route="north2west" depart="65.056" departLane="random" departSpeed="max" />
  <vehicle id="veh_110" type="car" route="north2west" depart="65.886" departLane="random" departSpeed="max" />
  <vehicle id="veh_111" type="car" route="north2west" depart="66.575" departLane="random" departSpeed="max" />
  <vehicle id="veh_112" type="car" route="north2west" depart="66.700" departLane="random" departSpeed="max" />
  <vehicle id="veh_113" type="car" route="east_main" depart="67.204" departLane="random" departSpeed="max" />
  <vehicle id="veh_114" type="car" route="south4north" depart="68.332" departLane="random" departSpeed="max" />
  <vehicle id="veh_115" type="mtw" route="south4north" depart="68.693" departLane="random" departSpeed="max" />
  <vehicle id="veh_116" type="mtw" route="west_main" depart="69.557" departLane="random" departSpeed="max" />
  <vehicle id="veh_117" type="car" route="south4north" depart="69.796" departLane="random" departSpeed="max" />
  <vehicle id="veh_118" type="car" route="west_main" depart="70.286" departLane="random" departSpeed="max" />
  <vehicle id="veh_119" type="car" route="north2west" depart="71.040" departLane="random" departSpeed="max" />
  <vehicle id="veh_120" type="car" route="north2west" depart="71.454" departLane="random" departSpeed="max" />
  <vehicle id="veh_121" type="mtw" route="south2east" depart="72.348" departLane="random" departSpeed="max" />
  <vehicle id="veh_122" type="car" route="south4north" depart="72.715" departLane="random" departSpeed="max" />
  <vehicle id="veh_123" type="car" route="north2west" depart="73.793" departLane="random" departSpeed="max" />
  <vehicle id="veh_124" type="mtw" route="north2west" depart="74.268" departLane="random" departSpeed="max" />
  <vehicle id="veh_125" type="car" route="south2east" depart="74.597" departLane="random" departSpeed="max" />
  <vehicle id="veh_126" type="mtw" route="south2east" depart="75.071" departLane="random" departSpeed="max" />
  <vehicle id="veh_127" type="car" route="west_main" depart="75.919" departLane="random" departSpeed="max" />
  <vehicle id="veh_128" type="car" route="north2west" depart="76.399" departLane="random" departSpeed="max" />
  <vehicle id="veh_129" type="car" route="north2west" depart="77.182" departLane="random" departSpeed="max" />
  <vehicle id="veh_130" type="car" route="south4north" depart="77.447" departLane="random" departSpeed="max" />
  <vehicle id="veh_131" type="truck" route="south2east" depart="78.352" departLane="random" departSpeed="max" />
  <vehicle id="veh_132" type="car" route="south2east" depart="78.681" departLane="random" departSpeed="max" />
  <vehicle id="veh_133" type="bike" route="south4north" depart="79.715" departLane="random" departSpeed="max" />
  <vehicle id="veh_134" type="mtw" route="west_main" depart="79.981" departLane="random" departSpeed="max" />
  <vehicle id="veh_135" type="car" route="south4north" depart="80.652" departLane="random" departSpeed="max" />
  <vehicle id="veh_136" type="car" route="north4east" depart="81.418" departLane="random" departSpeed="max" />
  <vehicle id="veh_137" type="car" route="north4east" depart="81.858" departLane="random" departSpeed="max" />
  <vehicle id="veh_138" type="car" route="north2west" depart="82.273" departLane="random" departSpeed="max" />
  <vehicle id="veh_139" type="car" route="east_main" depart="83.325" departLane="random" departSpeed="max" />
  <vehicle id="veh_140" type="car" route="south2east" depart="83.518" departLane="random" departSpeed="max" />
  <vehicle id="veh_141" type="car" route="west_main" depart="84.369" departLane="random" departSpeed="max" />
  <vehicle id="veh_142" type="mtw" route="east_main" depart="84.611" departLane="random" departSpeed="max" />
  <vehicle id="veh_143" type="mtw" route="north4east" depart="85.742" departLane="random" departSpeed="max" />
  <vehicle id="veh_144" type="bike" route="north2west" depart="86.190" departLane="random" departSpeed="max" />
  <vehicle id="veh_145" type="car" route="south4north" depart="86.541" departLane="random" departSpeed="max" />
  <vehicle id="veh_146" type="car" route="south2east" depart="87.191" departLane="random" departSpeed="max" />
  <vehicle id="veh_147" type="mtw" route="south2east" depart="87.739" departLane="random" departSpeed="max" />
  <vehicle id="veh_148" type="bike" route="north4east" depart="88.727" departLane="random" departSpeed="max" />
  <vehicle id="veh_149" type="car" route="north4east" depart="88.842" departLane="random" departSpeed="max" />
  <vehicle id="veh_150" type="car" route="north4east" depart="89.716" departLane="random" departSpeed="max" />
  <vehicle id="veh_151" type="auto" route="east_main" depart="90.240" departLane="random" departSpeed="max" />
  <vehicle id="veh_152" type="car" route="south2east" depart="91.102" departLane="random" departSpeed="max" />
  <vehicle id="veh_153" type="auto" route="south2east" depart="91.527" departLane="random" departSpeed="max" />
  <vehicle id="veh_154" type="car" route="south4north" depart="92.367" departLane="random" departSpeed="max" />
  <vehicle id="veh_155" type="car" route="east_main" depart="92.625" departLane="random" departSpeed="max" />
  <vehicle id="veh_156" type="mtw" route="south4north" depart="93.034" departLane="random" departSpeed="max" />
  <vehicle id="veh_157" type="truck" route="north2west" depart="94.131" departLane="random" departSpeed="max" />
  <vehicle id="veh_158" type="car" route="north2west" depart="94.523" departLane="random" departSpeed="max" />
  <vehicle id="veh_159" type="mtw" route="south4north" depart="95.188" departLane="random" departSpeed="max" />
  <vehicle id="veh_160" type="mtw" route="south2east" depart="95.460" departLane="random" departSpeed="max" />
  <vehicle id="veh_161" type="mtw" route="south4north" depart="96.325" departLane="random" departSpeed="max" />
  <vehicle id="veh_162" type="car" route="south4north" depart="97.156" departLane="random" departSpeed="max" />
  <vehicle id="veh_163" type="car" route="north4east" depart="97.259" departLane="random" departSpeed="max" />
  <vehicle id="veh_164" type="car" route="south4north" depart="98.216" departLane="random" departSpeed="max" />
  <vehicle id="veh_165" type="car" route="south2east" depart="98.824" departLane="random" departSpeed="max" />
  <vehicle id="veh_166" type="mtw" route="east_main" depart="99.347" departLane="random" departSpeed="max" />
  <vehicle id="veh_167" type="car" route="east_main" depart="100.127" departLane="random" departSpeed="max" />
  <vehicle id="veh_168" type="truck" route="north4east" depart="100.610" departLane="random" departSpeed="max" />
  <vehicle id="veh_169" type="auto" route="south4north" depart="101.036" departLane="random" departSpeed="max" />
  <vehicle id="veh_170" type="car" route="south4north" depart="101.780" departLane="random" departSpeed="max" />
  <vehicle id="veh_171" type="car" route="north2west" depart="102.365" departLane="random" departSpeed="max" />
  <vehicle id="veh_172" type="car" route="east_main" depart="102.838" departLane="random" departSpeed="max" />
  <vehicle id="veh_173" type="auto" route="south2east" depart="103.393" departLane="random" departSpeed="max" />
  <vehicle id="veh_174" type="auto" route="north4east" depart="103.836" departLane="random" departSpeed="max" />
  <vehicle id="veh_175" type="mtw" route="west_main" depart="104.779" departLane="random" departSpeed="max" />
  <vehicle id="veh_176" type="car" route="east_main" depart="105.276" departLane="random" departSpeed="max" />
  <vehicle id="veh_177" type="mtw" route="east_main" depart="105.710" departLane="random" departSpeed="max" />
  <vehicle id="veh_178" type="car" route="west_main" depart="106.430" departLane="random" departSpeed="max" />
  <vehicle id="veh_179" type="car" route="south2east" depart="107.089" departLane="random" departSpeed="max" />
  <vehicle id="veh_180" type="car" route="west_main" depart="107.768" departLane="random" departSpeed="max" />
  <vehicle id="veh_181" type="car" route="north2west" depart="108.032" departLane="random" departSpeed="max" />
  <vehicle id="veh_182" type="auto" route="east_main" depart="108.784" departLane="random" departSpeed="max" />
  <vehicle id="veh_183" type="mtw" route="north2west" depart="109.380" departLane="random" departSpeed="max" />
  <vehicle id="veh_184" type="car" route="south2east" depart="110.175" departLane="random" departSpeed="max" />
  <vehicle id="veh_185" type="car" route="east_main" depart="110.772" departLane="random" departSpeed="max" />
  <vehicle id="veh_186" type="car" route="north2west" depart="111.151" departLane="random" departSpeed="max" />
  <vehicle id="veh_187" type="car" route="south4north" depart="112.143" departLane="random" departSpeed="max" />
  <vehicle id="veh_188" type="mtw" route="south2east" depart="112.309" departLane="random" departSpeed="max" />
  <vehicle id="veh_189" type="car" route="north4east" depart="112.984" departLane="random" departSpeed="max" />
  <vehicle id="veh_190" type="truck" route="east_main" depart="113.478" departLane="random" departSpeed="max" />
  <vehicle id="veh_191" type="car" route="south4north" depart="114.238" departLane="random" departSpeed="max" />
  <vehicle id="veh_192" type="mtw" route="west_main" depart="114.989" departLane="random" departSpeed="max" />
  <vehicle id="veh_193" type="mtw" route="west_main" depart="115.398" departLane="random" departSpeed="max" />
  <vehicle id="veh_194" type="auto" route="north2west" depart="116.099" departLane="random" departSpeed="max" />
  <vehicle id="veh_195" type="car" route="north4east" depart="116.625" departLane="random" departSpeed="max" />
  <vehicle id="veh_196" type="bike" route="south4north" depart="117.136" departLane="random" departSpeed="max" />
  <vehicle id="veh_197" type="auto" route="south4north" depart="118.139" departLane="random" departSpeed="max" />
  <vehicle id="veh_198" type="car" route="west_main" depart="118.253" departLane="random" departSpeed="max" />
  <vehicle id="veh_199" type="truck" route="north2west" depart="118.881" departLane="random" departSpeed="max" />
  <vehicle id="veh_200" type="mtw" route="west_main" depart="119.695" departLane="random" departSpeed="max" />
  <vehicle id="veh_201" type="car" route="north4east" depart="120.387" departLane="random" departSpeed="max" />
  <vehicle id="veh_202" type="mtw" route="east_main" depart="121.080" departLane="random" departSpeed="max" />
  <vehicle id="veh_203" type="mtw" route="south4north" depart="121.736" departLane="random" departSpeed="max" />
  <vehicle id="veh_204" type="bus" route="east_main" depart="121.862" departLane="random" departSpeed="max" />
  <vehicle id="veh_205" type="car" route="south4north" depart="122.759" departLane="random" departSpeed="max" />
  <vehicle id="veh_206" type="car" route="east_main" depart="123.128" departLane="random" departSpeed="max" />
  <vehicle id="veh_207" type="mtw" route="south2east" depart="124.039" departLane="random" departSpeed="max" />
  <vehicle id="veh_208" type="car" route="south4north" depart="124.725" departLane="random" departSpeed="max" />
  <vehicle id="veh_209" type="car" route="south4north" depart="124.960" departLane="random" departSpeed="max" />
  <vehicle id="veh_210" type="car" route="south2east" depart="125.561" departLane="random" departSpeed="max" />
  <vehicle id="veh_211" type="bike" route="east_main" depart="126.413" departLane="random" departSpeed="max" />
  <vehicle id="veh_212" type="mtw" route="east_main" depart="126.668" departLane="random" departSpeed="max" />
  <vehicle id="veh_213" type="car" route="south2east" depart="127.566" departLane="random" departSpeed="max" />
  <vehicle id="veh_214" type="car" route="south2east" depart="128.086" departLane="random" departSpeed="max" />
  <vehicle id="veh_215" type="car" route="south4north" depart="128.849" departLane="random" departSpeed="max" />
  <vehicle id="veh_216" type="bus" route="north4east" depart="129.391" departLane="random" departSpeed="max" />
  <vehicle id="veh_217" type="auto" route="north2west" depart="129.715" departLane="random" departSpeed="max" />
  <vehicle id="veh_218" type="car" route="west_main" depart="130.238" departLane="random" departSpeed="max" />
  <vehicle id="veh_219" type="truck" route="south4north" depart="131.216" departLane="random" departSpeed="max" />
  <vehicle id="veh_220" type="truck" route="north2west" depart="131.461" departLane="random" departSpeed="max" />
  <vehicle id="veh_221" type="mtw" route="south2east" depart="132.160" departLane="random" departSpeed="max" />
  <vehicle id="veh_222" type="auto" route="north4east" depart="132.685" departLane="random" departSpeed="max" />
  <vehicle id="veh_223" type="bike" route="north2west" depart="133.665" departLane="random" departSpeed="max" />
  <vehicle id="veh_224" type="mtw" route="south2east" depart="134.044" departLane="random" departSpeed="max" />
  <vehicle id="veh_225" type="bus" route="west_main" depart="134.539" departLane="random" departSpeed="max" />
  <vehicle id="veh_226" type="car" route="west_main" depart="135.226" departLane="random" departSpeed="max" />
  <vehicle id="veh_227" type="mtw" route="south4north" depart="135.658" departLane="random" departSpeed="max" />
  <vehicle id="veh_228" type="auto" route="south2east" depart="136.586" departLane="random" departSpeed="max" />
  <vehicle id="veh_229" type="car" route="south4north" depart="136.991" departLane="random" departSpeed="max" />
  <vehicle id="veh_230" type="car" route="west_main" depart="137.826" departLane="random" departSpeed="max" />
  <vehicle id="veh_231" type="truck" route="north4east" depart="138.170" departLane="random" departSpeed="max" />
  <vehicle id="veh_232" type="auto" route="south2east" depart="138.686" departLane="random" departSpeed="max" />
  <vehicle id="veh_233" type="auto" route="south4north" depart="139.525" departLane="random" departSpeed="max" />
  <vehicle id="veh_234" type="car" route="west_main" depart="140.070" departLane="random" departSpeed="max" />
  <vehicle id="veh_235" type="car" route="east_main" depart="140.508" departLane="random" departSpeed="max" />
  <vehicle id="veh_236" type="car" route="north4east" depart="141.085" departLane="random" departSpeed="max" />
  <vehicle id="veh_237" type="car" route="south2east" depart="141.831" departLane="random" departSpeed="max" />
  <vehicle id="veh_238" type="car" route="north2west" depart="142.779" departLane="random" departSpeed="max" />
  <vehicle id="veh_239" type="car" route="east_main" depart="143.152" departLane="random" departSpeed="max" />
  <vehicle id="veh_240" type="truck" route="north4east" depart="143.482" departLane="random" departSpeed="max" />
  <vehicle id="veh_241" type="car" route="north2west" depart="144.495" departLane="random" departSpeed="max" />
  <vehicle id="veh_242" type="mtw" route="north2west" depart="145.144" departLane="random" departSpeed="max" />
  <vehicle id="veh_243" type="mtw" route="west_main" depart="145.641" departLane="random" departSpeed="max" />
  <vehicle id="veh_244" type="car" route="south4north" depart="146.399" departLane="random" departSpeed="max" />
  <vehicle id="veh_245" type="car" route="north2west" depart="146.796" departLane="random" departSpeed="max" />
  <vehicle id="veh_246" type="car" route="east_main" depart="147.467" departLane="random" departSpeed="max" />
  <vehicle id="veh_247" type="car" route="south2east" depart="147.828" departLane="random" departSpeed="max" />
  <vehicle id="veh_248" type="auto" route="north2west" depart="148.538" departLane="random" departSpeed="max" />
  <vehicle id="veh_249" type="mtw" route="north2west" depart="149.043" departLane="random" departSpeed="max" />
  <vehicle id="veh_250" type="mtw" route="south2east" depart="149.527" departLane="random" departSpeed="max" />
  <vehicle id="veh_251" type="car" route="north2west" depart="150.409" departLane="random" departSpeed="max" />
  <vehicle id="veh_252" type="truck" route="south4north" depart="151.136" departLane="random" departSpeed="max" />
  <vehicle id="veh_253" type="car" route="east_main" depart="151.685" departLane="random" departSpeed="max" />
  <vehicle id="veh_254" type="car" route="west_main" depart="151.873" departLane="random" departSpeed="max" />
  <vehicle id="veh_255" type="car" route="south2east" depart="152.678" departLane="random" departSpeed="max" />
  <vehicle id="veh_256" type="car" route="south2east" depart="153.044" departLane="random" departSpeed="max" />
  <vehicle id="veh_257" type="car" route="west_main" depart="153.850" departLane="random" departSpeed="max" />
  <vehicle id="veh_258" type="truck" route="north2west" depart="154.240" departLane="random" departSpeed="max" />
  <vehicle id="veh_259" type="mtw" route="south2east" depart="155.217" departLane="random" departSpeed="max" />