<?xml version="1.0" encoding="UTF-8"?>

<!-- generated on 2025-10-01 01:07:17 by Eclipse SUMO netconvert Version UNKNOWN
<netconvertConfiguration xmlns:xsi="http://www.w3.org/2001/XMLSchema-instance" xsi:noNamespaceSchemaLocation="http://sumo.dlr.de/xsd/netconvertConfiguration.xsd">

    <input>
        <node-files value="corridor.nod.xml"/>
        <edge-files value="corridor.edg.xml"/>
    </input>

    <output>
        <output-file value="corridor.net.xml"/>
    </output>

    <pedestrian>
        <sidewalks.guess value="true"/>
        <crossings.guess value="true"/>
    </pedestrian>

</netconvertConfiguration>
-->

<net version="1.20" junctionCornerDetail="5" walkingareas="true" limitTurnSpeed="5.50" xmlns:xsi="http://www.w3.org/2001/XMLSchema-instance" xsi:noNamespaceSchemaLocation="http://sumo.dlr.de/xsd/net_file.xsd">

    <location netOffset="0.00,200.00" convBoundary="0.00,0.00,1500.00,400.00" origBoundary="0.00,-200.00,1500.00,200.00" projParameter="!"/>

    <edge id=":A0_0" function="internal">
        <lane id=":A0_0_0" index="0" speed="3.65" length="4.67" shape="0.00,201.60 -1.20,200.80 -1.60,200.00 -1.20,199.20 0.00,198.40"/>
    </edge>
    <edge id=":A0_w0" function="walkingarea">
        <lane id=":A0_w0_0" index="0" allow="pedestrian" speed="2.78" length="9.60" width="12.80" shape="0.00,200.00 0.00,193.60 0.00,206.40 0.00,200.00"/>
    </edge>
    <edge id=":A1_0" function="internal">
        <lane id=":A1_0_0" index="0" disallow="pedestrian" speed="13.90" length="3.00" shape="301.50,204.80 298.50,204.80"/>
        <lane id=":A1_0_1" index="1" disallow="pedestrian" speed="13.90" length="3.00" shape="301.50,201.60 298.50,201.60"/>
    </edge>
    <edge id=":A1_2" function="internal">
        <lane id=":A1_2_0" index="0" disallow="pedestrian" speed="13.90" length="3.00" shape="298.50,195.20 301.50,195.20"/>
        <lane id=":A1_2_1" index="1" disallow="pedestrian" speed="13.90" length="3.00" shape="298.50,198.40 301.50,198.40"/>
    </edge>
    <edge id=":A1_w0" function="walkingarea">
        <lane id=":A1_w0_0" index="0" allow="pedestrian" speed="2.78" length="9.58" width="3.20" shape="301.50,193.60 301.50,191.60 298.50,193.60 298.50,196.80 298.50,200.00 298.50,203.20 298.50,206.40 301.50,208.40 301.50,206.40"/>
    </edge>
    <edge id=":A2_0" function="internal">
        <lane id=":A2_0_0" index="0" disallow="pedestrian" speed="6.51" length="9.03" shape="598.40,210.40 598.05,207.95 597.00,206.20 595.25,205.15 592.80,204.80"/>
    </edge>
    <edge id=":A2_1" function="internal">
        <lane id=":A2_1_0" index="0" disallow="pedestrian" speed="11.10" length="20.80" shape="598.40,210.40 598.40,189.60"/>
    </edge>
    <edge id=":A2_2" function="internal">
        <lane id=":A2_2_0" index="0" disallow="pedestrian" speed="8.67" length="16.85" shape="598.40,210.40 598.95,205.15 600.60,201.40 603.35,199.15 607.20,198.40"/>
    </edge>
    <edge id=":A2_3" function="internal">
        <lane id=":A2_3_0" index="0" disallow="pedestrian" speed="3.65" length="4.67" shape="598.40,210.40 599.20,209.20 600.00,208.80 600.80,209.20 601.60,210.40"/>
    </edge>
    <edge id=":A2_4" function="internal">
        <lane id=":A2_4_0" index="0" disallow="pedestrian" speed="6.51" length="4.75" shape="607.20,204.80 604.75,205.15 603.00,206.20 602.88,206.40"/>
    </edge>
    <edge id=":A2_5" function="internal">
        <lane id=":A2_5_0" index="0" disallow="pedestrian" speed="12.50" length="14.40" shape="607.20,204.80 592.80,204.80"/>
        <lane id=":A2_5_1" index="1" disallow="pedestrian" speed="12.50" length="14.40" shape="607.20,201.60 592.80,201.60"/>
    </edge>
    <edge id=":A2_7" function="internal">
        <lane id=":A2_7_0" index="0" disallow="pedestrian" speed="8.67" length="3.71" shape="607.20,201.60 603.56,200.89"/>
    </edge>
    <edge id=":A2_8" function="internal">
        <lane id=":A2_8_0" index="0" speed="3.65" length="1.44" shape="607.20,201.60 606.00,200.80"/>
    </edge>
    <edge id=":A2_18" function="internal">
        <lane id=":A2_18_0" index="0" disallow="pedestrian" speed="6.51" length="4.28" shape="602.88,206.40 601.95,207.95 601.60,210.40"/>
    </edge>
    <edge id=":A2_19" function="internal">
        <lane id=":A2_19_0" index="0" disallow="pedestrian" speed="8.67" length="13.14" shape="603.56,200.89 603.35,200.85 600.60,198.60 598.95,194.85 598.40,189.60"/>
    </edge>
    <edge id=":A2_20" function="internal">
        <lane id=":A2_20_0" index="0" speed="3.65" length="3.23" shape="606.00,200.80 605.60,200.00 606.00,199.20 607.20,198.40"/>
    </edge>
    <edge id=":A2_9" function="internal">
        <lane id=":A2_9_0" index="0" disallow="pedestrian" speed="6.51" length="9.03" shape="601.60,189.60 601.95,192.05 603.00,193.80 604.75,194.85 607.20,195.20"/>
    </edge>
    <edge id=":A2_10" function="internal">
        <lane id=":A2_10_0" index="0" disallow="pedestrian" speed="11.10" length="20.80" shape="601.60,189.60 601.60,210.40"/>
    </edge>
    <edge id=":A2_11" function="internal">
        <lane id=":A2_11_0" index="0" disallow="pedestrian" speed="8.67" length="16.85" shape="601.60,189.60 601.05,194.85 599.40,198.60 596.65,200.85 592.80,201.60"/>
    </edge>
    <edge id=":A2_12" function="internal">
        <lane id=":A2_12_0" index="0" disallow="pedestrian" speed="3.65" length="4.67" shape="601.60,189.60 600.80,190.80 600.00,191.20 599.20,190.80 598.40,189.60"/>
    </edge>
    <edge id=":A2_13" function="internal">
        <lane id=":A2_13_0" index="0" disallow="pedestrian" speed="6.51" length="4.75" shape="592.80,195.20 595.25,194.85 597.00,193.80 597.12,193.60"/>
    </edge>
    <edge id=":A2_14" function="internal">
        <lane id=":A2_14_0" index="0" disallow="pedestrian" speed="12.50" length="14.40" shape="592.80,195.20 607.20,195.20"/>
        <lane id=":A2_14_1" index="1" disallow="pedestrian" speed="12.50" length="14.40" shape="592.80,198.40 607.20,198.40"/>
    </edge>
    <edge id=":A2_16" function="internal">
        <lane id=":A2_16_0" index="0" disallow="pedestrian" speed="8.67" length="3.71" shape="592.80,198.40 596.44,199.11"/>
    </edge>
    <edge id=":A2_17" function="internal">
        <lane id=":A2_17_0" index="0" disallow="pedestrian" speed="3.65" length="1.44" shape="592.80,198.40 594.00,199.20"/>
    </edge>
    <edge id=":A2_21" function="internal">
        <lane id=":A2_21_0" index="0" disallow="pedestrian" speed="6.51" length="4.28" shape="597.12,193.60 598.05,192.05 598.40,189.60"/>
    </edge>
    <edge id=":A2_22" function="internal">
        <lane id=":A2_22_0" index="0" disallow="pedestrian" speed="8.67" length="13.14" shape="596.44,199.11 596.65,199.15 599.40,201.40 601.05,205.15 601.60,210.40"/>
    </edge>
    <edge id=":A2_23" function="internal">
        <lane id=":A2_23_0" index="0" disallow="pedestrian" speed="3.65" length="3.23" shape="594.00,199.20 594.40,200.00 594.00,200.80 592.80,201.60"/>
    </edge>
    <edge id=":A2_c0" function="crossing" crossingEdges="A2_S2N S2N_A2">
        <lane id=":A2_c0_0" index="0" allow="pedestrian" speed="2.78" length="6.40" width="4.00" shape="603.20,208.40 596.80,208.40" outlineShape="603.20,210.40 596.80,210.40 592.80,206.40 592.80,208.40 594.80,210.40 596.80,210.40 592.80,206.40 603.20,206.40"/>
    </edge>
    <edge id=":A2_c1" function="crossing" crossingEdges="A2_S2S S2S_A2">
        <lane id=":A2_c1_0" index="0" allow="pedestrian" speed="2.78" length="6.40" width="4.00" shape="596.80,191.60 603.20,191.60" outlineShape="596.80,189.60 603.20,189.60 603.20,193.60 592.80,193.60 594.02,193.49 595.02,193.16 595.80,192.60 596.36,191.82 596.69,190.82"/>
    </edge>
    <edge id=":A2_c2" function="crossing" crossingEdges="A2_A1 A1_A2">
        <lane id=":A2_c2_0" index="0" allow="pedestrian" speed="2.78" length="12.80" width="4.00" shape="594.80,206.40 594.80,193.60" outlineShape="592.80,206.50 592.80,193.50 596.80,189.60 594.80,189.60 592.80,191.60 592.80,193.60 596.80,189.60 596.80,210.40 596.69,209.18 596.36,208.18 595.80,207.40 595.02,206.84 594.02,206.51"/>
    </edge>
    <edge id=":A2_w0" function="walkingarea">
        <lane id=":A2_w0_0" index="0" allow="pedestrian" speed="2.78" length="3.30" width="4.00" shape="592.80,206.40 592.80,208.40 594.80,210.40 596.80,210.40 596.69,209.18 596.36,208.18 595.80,207.40 595.02,206.84 594.02,206.51"/>
    </edge>
    <edge id=":A2_w1" function="walkingarea">
        <lane id=":A2_w1_0" index="0" allow="pedestrian" speed="2.78" length="11.42" width="4.00" shape="603.20,206.40 603.20,210.40 605.20,210.40 607.20,206.40 607.20,203.20 607.20,200.00 607.20,196.80 607.20,193.60 605.20,189.60 603.20,189.60 603.20,193.60"/>
    </edge>
    <edge id=":A2_w2" function="walkingarea">
        <lane id=":A2_w2_0" index="0" allow="pedestrian" speed="2.78" length="3.30" width="4.00" shape="596.80,189.60 594.80,189.60 592.80,191.60 592.80,193.60 594.02,193.49 595.02,193.16 595.80,192.60 596.36,191.82 596.69,190.82"/>
    </edge>
    <edge id=":A3_0" function="internal">
        <lane id=":A3_0_0" index="0" disallow="pedestrian" speed="11.12" length="3.00" shape="901.50,204.80 898.50,204.80"/>
        <lane id=":A3_0_1" index="1" disallow="pedestrian" speed="11.12" length="3.00" shape="901.50,201.60 898.50,201.60"/>
    </edge>
    <edge id=":A3_2" function="internal">
        <lane id=":A3_2_0" index="0" disallow="pedestrian" speed="11.12" length="3.00" shape="898.50,195.20 901.50,195.20"/>
        <lane id=":A3_2_1" index="1" disallow="pedestrian" speed="11.12" length="3.00" shape="898.50,198.40 901.50,198.40"/>
    </edge>
    <edge id=":A3_w0" function="walkingarea">
        <lane id=":A3_w0_0" index="0" allow="pedestrian" speed="2.78" length="9.58" width="3.20" shape="901.50,193.60 901.50,191.60 898.50,193.60 898.50,196.80 898.50,200.00 898.50,203.20 898.50,206.40 901.50,208.40 901.50,206.40"/>
    </edge>
    <edge id=":A4_0" function="internal">
        <lane id=":A4_0_0" index="0" disallow="pedestrian" speed="6.51" length="9.03" shape="1198.40,210.40 1198.05,207.95 1197.00,206.20 1195.25,205.15 1192.80,204.80"/>
    </edge>
    <edge id=":A4_1" function="internal">
        <lane id=":A4_1_0" index="0" disallow="pedestrian" speed="11.10" length="20.80" shape="1198.40,210.40 1198.40,189.60"/>
    </edge>
    <edge id=":A4_2" function="internal">
        <lane id=":A4_2_0" index="0" disallow="pedestrian" speed="8.67" length="16.85" shape="1198.40,210.40 1198.95,205.15 1200.60,201.40 1203.35,199.15 1207.20,198.40"/>
    </edge>
    <edge id=":A4_3" function="internal">
        <lane id=":A4_3_0" index="0" disallow="pedestrian" speed="3.65" length="4.67" shape="1198.40,210.40 1199.20,209.20 1200.00,208.80 1200.80,209.20 1201.60,210.40"/>
    </edge>
    <edge id=":A4_4" function="internal">
        <lane id=":A4_4_0" index="0" disallow="pedestrian" speed="6.51" length="4.75" shape="1207.20,204.80 1204.75,205.15 1203.00,206.20 1202.88,206.40"/>
    </edge>
    <edge id=":A4_5" function="internal">
        <lane id=":A4_5_0" index="0" disallow="pedestrian" speed="12.52" length="14.40" shape="1207.20,204.80 1192.80,204.80"/>
        <lane id=":A4_5_1" index="1" disallow="pedestrian" speed="12.52" length="14.40" shape="1207.20,201.60 1192.80,201.60"/>
    </edge>
    <edge id=":A4_7" function="internal">
        <lane id=":A4_7_0" index="0" disallow="pedestrian" speed="8.67" length="3.71" shape="1207.20,201.60 1203.56,200.89"/>
    </edge>
    <edge id=":A4_8" function="internal">
        <lane id=":A4_8_0" index="0" speed="3.65" length="1.44" shape="1207.20,201.60 1206.00,200.80"/>
    </edge>
    <edge id=":A4_18" function="internal">
        <lane id=":A4_18_0" index="0" disallow="pedestrian" speed="6.51" length="4.28" shape="1202.88,206.40 1201.95,207.95 1201.60,210.40"/>
    </edge>
    <edge id=":A4_19" function="internal">
        <lane id=":A4_19_0" index="0" disallow="pedestrian" speed="8.67" length="13.14" shape="1203.56,200.89 1203.35,200.85 1200.60,198.60 1198.95,194.85 1198.40,189.60"/>
    </edge>
    <edge id=":A4_20" function="internal">
        <lane id=":A4_20_0" index="0" speed="3.65" length="3.23" shape="1206.00,200.80 1205.60,200.00 1206.00,199.20 1207.20,198.40"/>
    </edge>
    <edge id=":A4_9" function="internal">
        <lane id=":A4_9_0" index="0" disallow="pedestrian" speed="6.51" length="9.03" shape="1201.60,189.60 1201.95,192.05 1203.00,193.80 1204.75,194.85 1207.20,195.20"/>
    </edge>
    <edge id=":A4_10" function="internal">
        <lane id=":A4_10_0" index="0" disallow="pedestrian" speed="11.10" length="20.80" shape="1201.60,189.60 1201.60,210.40"/>
    </edge>
    <edge id=":A4_11" function="internal">
        <lane id=":A4_11_0" index="0" disallow="pedestrian" speed="8.67" length="16.85" shape="1201.60,189.60 1201.05,194.85 1199.40,198.60 1196.65,200.85 1192.80,201.60"/>
    </edge>
    <edge id=":A4_12" function="internal">
        <lane id=":A4_12_0" index="0" disallow="pedestrian" speed="3.65" length="4.67" shape="1201.60,189.60 1200.80,190.80 1200.00,191.20 1199.20,190.80 1198.40,189.60"/>
    </edge>
    <edge id=":A4_13" function="internal">
        <lane id=":A4_13_0" index="0" disallow="pedestrian" speed="6.51" length="4.75" shape="1192.80,195.20 1195.25,194.85 1197.00,193.80 1197.12,193.60"/>
    </edge>
    <edge id=":A4_14" function="internal">
        <lane id=":A4_14_0" index="0" disallow="pedestrian" speed="12.52" length="14.40" shape="1192.80,195.20 1207.20,195.20"/>
        <lane id=":A4_14_1" index="1" disallow="pedestrian" speed="12.52" length="14.40" shape="1192.80,198.40 1207.20,198.40"/>
    </edge>
    <edge id=":A4_16" function="internal">
        <lane id=":A4_16_0" index="0" disallow="pedestrian" speed="8.67" length="3.71" shape="1192.80,198.40 1196.44,199.11"/>
    </edge>
    <edge id=":A4_17" function="internal">
        <lane id=":A4_17_0" index="0" disallow="pedestrian" speed="3.65" length="1.44" shape="1192.80,198.40 1194.00,199.20"/>
    </edge>
    <edge id=":A4_21" function="internal">
        <lane id=":A4_21_0" index="0" disallow="pedestrian" speed="6.51" length="4.28" shape="1197.12,193.60 1198.05,192.05 1198.40,189.60"/>
    </edge>
    <edge id=":A4_22" function="internal">
        <lane id=":A4_22_0" index="0" disallow="pedestrian" speed="8.67" length="13.14" shape="1196.44,199.11 1196.65,199.15 1199.40,201.40 1201.05,205.15 1201.60,210.40"/>
    </edge>
    <edge id=":A4_23" function="internal">
        <lane id=":A4_23_0" index="0" disallow="pedestrian" speed="3.65" length="3.23" shape="1194.00,199.20 1194.40,200.00 1194.00,200.80 1192.80,201.60"/>
    </edge>
    <edge id=":A4_c0" function="crossing" crossingEdges="A4_S4N S4N_A4">
        <lane id=":A4_c0_0" index="0" allow="pedestrian" speed="2.78" length="6.40" width="4.00" shape="1203.20,208.40 1196.80,208.40" outlineShape="1203.30,210.40 1196.70,210.40 1196.69,209.18 1196.36,208.18 1195.80,207.40 1195.02,206.84 1194.69,206.73 1196.80,206.40 1203.20,206.40"/>
    </edge>
    <edge id=":A4_c1" function="crossing" crossingEdges="A4_S4S S4S_A4">
        <lane id=":A4_c1_0" index="0" allow="pedestrian" speed="2.78" length="6.40" width="4.00" shape="1196.80,191.60 1203.20,191.60" outlineShape="1196.70,189.60 1203.30,189.60 1203.20,193.60 1196.80,193.60 1194.69,193.27 1195.02,193.16 1195.80,192.60 1196.36,191.82 1196.69,190.82"/>
    </edge>
    <edge id=":A4_c2" function="crossing" crossingEdges="A4_A3 A3_A4">
        <lane id=":A4_c2_0" index="0" allow="pedestrian" speed="2.78" length="12.80" width="4.00" shape="1194.80,206.40 1194.80,193.60" outlineShape="1192.80,206.50 1192.80,193.50 1196.80,189.60 1194.80,189.60 1192.80,191.60 1192.80,193.60 1196.80,189.60 1196.80,210.40 1196.69,209.18 1196.36,208.18 1195.80,207.40 1195.02,206.84 1194.02,206.51"/>
    </edge>
    <edge id=":A4_w0" function="walkingarea">
        <lane id=":A4_w0_0" index="0" allow="pedestrian" speed="2.78" length="3.30" width="4.00" shape="1192.80,206.40 1192.80,208.40 1194.80,210.40 1196.80,210.40 1196.69,209.18 1196.36,208.18 1195.80,207.40 1195.02,206.84 1194.02,206.51"/>
    </edge>
    <edge id=":A4_w1" function="walkingarea">
        <lane id=":A4_w1_0" index="0" allow="pedestrian" speed="2.78" length="11.42" width="4.00" shape="1203.20,206.40 1203.20,210.40 1205.20,210.40 1207.20,206.40 1207.20,203.20 1207.20,200.00 1207.20,196.80 1207.20,193.60 1205.20,189.60 1203.20,189.60 1203.20,193.60"/>
    </edge>
    <edge id=":A4_w2" function="walkingarea">
        <lane id=":A4_w2_0" index="0" allow="pedestrian" speed="2.78" length="3.30" width="4.00" shape="1196.80,189.60 1194.80,189.60 1192.80,191.60 1192.80,193.60 1194.02,193.49 1195.02,193.16 1195.80,192.60 1196.36,191.82 1196.69,190.82"/>
    </edge>
    <edge id=":A5_0" function="internal">
        <lane id=":A5_0_0" index="0" speed="3.65" length="4.67" shape="1500.00,198.40 1501.20,199.20 1501.60,200.00 1501.20,200.80 1500.00,201.60"/>
    </edge>
    <edge id=":A5_w0" function="walkingarea">
        <lane id=":A5_w0_0" index="0" allow="pedestrian" speed="2.78" length="9.60" width="12.80" shape="1500.00,200.00 1500.00,206.40 1500.00,193.60 1500.00,200.00"/>
    </edge>
    <edge id=":S2N_0" function="internal">
        <lane id=":S2N_0_0" index="0" disallow="pedestrian" speed="3.65" length="4.67" shape="601.60,400.00 600.80,401.20 600.00,401.60 599.20,401.20 598.40,400.00"/>
    </edge>
    <edge id=":S2N_w0" function="walkingarea">
        <lane id=":S2N_w0_0" index="0" allow="pedestrian" speed="2.78" length="8.40" width="2.00" shape="596.80,400.00 594.80,400.00 605.20,400.00 603.20,400.00"/>
    </edge>
    <edge id=":S2S_0" function="internal">
        <lane id=":S2S_0_0" index="0" disallow="pedestrian" speed="3.65" length="4.67" shape="598.40,0.00 599.20,-1.20 600.00,-1.60 600.80,-1.20 601.60,0.00"/>
    </edge>
    <edge id=":S2S_w0" function="walkingarea">
        <lane id=":S2S_w0_0" index="0" allow="pedestrian" speed="2.78" length="8.40" width="2.00" shape="603.20,0.00 605.20,0.00 594.80,0.00 596.80,0.00"/>
    </edge>
    <edge id=":S4N_0" function="internal">
        <lane id=":S4N_0_0" index="0" disallow="pedestrian" speed="3.65" length="4.67" shape="1201.60,400.00 1200.80,401.20 1200.00,401.60 1199.20,401.20 1198.40,400.00"/>
    </edge>
    <edge id=":S4N_w0" function="walkingarea">
        <lane id=":S4N_w0_0" index="0" allow="pedestrian" speed="2.78" length="8.40" width="2.00" shape="1196.80,400.00 1194.80,400.00 1205.20,400.00 1203.20,400.00"/>
    </edge>
    <edge id=":S4S_0" function="internal">
        <lane id=":S4S_0_0" index="0" disallow="pedestrian" speed="3.65" length="4.67" shape="1198.40,0.00 1199.20,-1.20 1200.00,-1.60 1200.80,-1.20 1201.60,0.00"/>
    </edge>
    <edge id=":S4S_w0" function="walkingarea">
        <lane id=":S4S_w0_0" index="0" allow="pedestrian" speed="2.78" length="8.40" width="2.00" shape="1203.20,0.00 1205.20,0.00 1194.80,0.00 1196.80,0.00"/>
    </edge>

    <edge id="A0_A1" from="A0" to="A1" priority="-1">
        <lane id="A0_A1_0" index="0" speed="16.70" length="298.50" shape="0.00,195.20 298.50,195.20"/>
        <lane id="A0_A1_1" index="1" speed="16.70" length="298.50" shape="0.00,198.40 298.50,198.40"/>
    </edge>
    <edge id="A1_A0" from="A1" to="A0" priority="-1">
        <lane id="A1_A0_0" index="0" speed="16.70" length="298.50" shape="298.50,204.80 0.00,204.80"/>
        <lane id="A1_A0_1" index="1" speed="16.70" length="298.50" shape="298.50,201.60 0.00,201.60"/>
    </edge>
    <edge id="A1_A2" from="A1" to="A2" priority="-1">
        <lane id="A1_A2_0" index="0" allow="pedestrian" speed="11.10" length="291.30" width="2.00" shape="301.50,192.60 592.80,192.60"/>
        <lane id="A1_A2_1" index="1" disallow="pedestrian" speed="11.10" length="291.30" shape="301.50,195.20 592.80,195.20"/>
        <lane id="A1_A2_2" index="2" disallow="pedestrian" speed="11.10" length="291.30" shape="301.50,198.40 592.80,198.40"/>
    </edge>
    <edge id="A2_A1" from="A2" to="A1" priority="-1">
        <lane id="A2_A1_0" index="0" allow="pedestrian" speed="11.10" length="291.30" width="2.00" shape="592.80,207.40 301.50,207.40"/>
        <lane id="A2_A1_1" index="1" disallow="pedestrian" speed="11.10" length="291.30" shape="592.80,204.80 301.50,204.80"/>
        <lane id="A2_A1_2" index="2" disallow="pedestrian" speed="11.10" length="291.30" shape="592.80,201.60 301.50,201.60"/>
    </edge>
    <edge id="A2_A3" from="A2" to="A3" priority="-1">
        <lane id="A2_A3_0" index="0" speed="13.90" length="291.30" shape="607.20,195.20 898.50,195.20"/>
        <lane id="A2_A3_1" index="1" speed="13.90" length="291.30" shape="607.20,198.40 898.50,198.40"/>
    </edge>
    <edge id="A2_S2N" from="A2" to="S2N" priority="-1">
        <lane id="A2_S2N_0" index="0" allow="pedestrian" speed="11.10" length="189.60" width="2.00" shape="604.20,210.40 604.20,400.00"/>
        <lane id="A2_S2N_1" index="1" disallow="pedestrian" speed="11.10" length="189.60" shape="601.60,210.40 601.60,400.00"/>
    </edge>
    <edge id="A2_S2S" from="A2" to="S2S" priority="-1">
        <lane id="A2_S2S_0" index="0" allow="pedestrian" speed="11.10" length="189.60" width="2.00" shape="595.80,189.60 595.80,0.00"/>
        <lane id="A2_S2S_1" index="1" disallow="pedestrian" speed="11.10" length="189.60" shape="598.40,189.60 598.40,0.00"/>
    </edge>
    <edge id="A3_A2" from="A3" to="A2" priority="-1">
        <lane id="A3_A2_0" index="0" speed="13.90" length="291.30" shape="898.50,204.80 607.20,204.80"/>
        <lane id="A3_A2_1" index="1" speed="13.90" length="291.30" shape="898.50,201.60 607.20,201.60"/>
    </edge>
    <edge id="A3_A4" from="A3" to="A4" priority="-1">
        <lane id="A3_A4_0" index="0" allow="pedestrian" speed="8.33" length="291.30" width="2.00" shape="901.50,192.60 1192.80,192.60"/>
        <lane id="A3_A4_1" index="1" disallow="pedestrian" speed="8.33" length="291.30" shape="901.50,195.20 1192.80,195.20"/>
        <lane id="A3_A4_2" index="2" disallow="pedestrian" speed="8.33" length="291.30" shape="901.50,198.40 1192.80,198.40"/>
    </edge>
    <edge id="A4_A3" from="A4" to="A3" priority="-1">
        <lane id="A4_A3_0" index="0" allow="pedestrian" speed="8.33" length="291.30" width="2.00" shape="1192.80,207.40 901.50,207.40"/>
        <lane id="A4_A3_1" index="1" disallow="pedestrian" speed="8.33" length="291.30" shape="1192.80,204.80 901.50,204.80"/>
        <lane id="A4_A3_2" index="2" disallow="pedestrian" speed="8.33" length="291.30" shape="1192.80,201.60 901.50,201.60"/>
    </edge>
    <edge id="A4_A5" from="A4" to="A5" priority="-1">
        <lane id="A4_A5_0" index="0" speed="16.70" length="292.80" shape="1207.20,195.20 1500.00,195.20"/>
        <lane id="A4_A5_1" index="1" speed="16.70" length="292.80" shape="1207.20,198.40 1500.00,198.40"/>
    </edge>
    <edge id="A4_S4N" from="A4" to="S4N" priority="-1">
        <lane id="A4_S4N_0" index="0" allow="pedestrian" speed="11.10" length="189.60" width="2.00" shape="1204.20,210.40 1204.20,400.00"/>
        <lane id="A4_S4N_1" index="1" disallow="pedestrian" speed="11.10" length="189.60" shape="1201.60,210.40 1201.60,400.00"/>
    </edge>
    <edge id="A4_S4S" from="A4" to="S4S" priority="-1">
        <lane id="A4_S4S_0" index="0" allow="pedestrian" speed="11.10" length="189.60" width="2.00" shape="1195.80,189.60 1195.80,0.00"/>
        <lane id="A4_S4S_1" index="1" disallow="pedestrian" speed="11.10" length="189.60" shape="1198.40,189.60 1198.40,0.00"/>
    </edge>
    <edge id="A5_A4" from="A5" to="A4" priority="-1">
        <lane id="A5_A4_0" index="0" speed="16.70" length="292.80" shape="1500.00,204.80 1207.20,204.80"/>
        <lane id="A5_A4_1" index="1" speed="16.70" length="292.80" shape="1500.00,201.60 1207.20,201.60"/>
    </edge>
    <edge id="S2N_A2" from="S2N" to="A2" priority="-1">
        <lane id="S2N_A2_0" index="0" allow="pedestrian" speed="11.10" length="189.60" width="2.00" shape="595.80,400.00 595.80,210.40"/>
        <lane id="S2N_A2_1" index="1" disallow="pedestrian" speed="11.10" length="189.60" shape="598.40,400.00 598.40,210.40"/>
    </edge>
    <edge id="S2S_A2" from="S2S" to="A2" priority="-1">
        <lane id="S2S_A2_0" index="0" allow="pedestrian" speed="11.10" length="189.60" width="2.00" shape="604.20,0.00 604.20,189.60"/>
        <lane id="S2S_A2_1" index="1" disallow="pedestrian" speed="11.10" length="189.60" shape="601.60,0.00 601.60,189.60"/>
    </edge>
    <edge id="S4N_A4" from="S4N" to="A4" priority="-1">
        <lane id="S4N_A4_0" index="0" allow="pedestrian" speed="11.10" length="189.60" width="2.00" shape="1195.80,400.00 1195.80,210.40"/>
        <lane id="S4N_A4_1" index="1" disallow="pedestrian" speed="11.10" length="189.60" shape="1198.40,400.00 1198.40,210.40"/>
    </edge>
    <edge id="S4S_A4" from="S4S" to="A4" priority="-1">
        <lane id="S4S_A4_0" index="0" allow="pedestrian" speed="11.10" length="189.60" width="2.00" shape="1204.20,0.00 1204.20,189.60"/>
        <lane id="S4S_A4_1" index="1" disallow="pedestrian" speed="11.10" length="189.60" shape="1201.60,0.00 1201.60,189.60"/>
    </edge>

    <junction id="A0" type="priority" x="0.00" y="200.00" incLanes="A1_A0_0 A1_A0_1" intLanes=":A0_0_0" shape="0.00,200.00 0.00,206.40 0.00,200.00">
        <request index="0" response="0" foes="0" cont="0"/>
    </junction>
    <junction id="A1" type="priority" x="300.00" y="200.00" incLanes="A2_A1_0 A2_A1_1 A2_A1_2 A0_A1_0 A0_A1_1" intLanes=":A1_0_0 :A1_0_1 :A1_2_0 :A1_2_1" shape="301.50,208.40 301.50,191.60 298.50,193.60 298.50,206.40">
        <request index="0" response="0000" foes="0000" cont="0"/>
        <request index="1" response="0000" foes="0000" cont="0"/>
        <request index="2" response="0000" foes="0000" cont="0"/>
        <request index="3" response="0000" foes="0000" cont="0"/>
    </junction>
    <junction id="A2" type="priority" x="600.00" y="200.00" incLanes="S2N_A2_0 S2N_A2_1 A3_A2_0 A3_A2_1 S2S_A2_0 S2S_A2_1 A1_A2_0 A1_A2_1 A1_A2_2 :A2_w1_0 :A2_w2_0 :A2_w0_0" intLanes=":A2_0_0 :A2_1_0 :A2_2_0 :A2_3_0 :A2_18_0 :A2_5_0 :A2_5_1 :A2_19_0 :A2_20_0 :A2_9_0 :A2_10_0 :A2_11_0 :A2_12_0 :A2_21_0 :A2_14_0 :A2_14_1 :A2_22_0 :A2_23_0 :A2_c0_0 :A2_c1_0 :A2_c2_0" shape="594.80,210.40 605.20,210.40 605.42,208.18 605.70,207.40 606.09,206.84 606.59,206.51 607.20,206.40 607.20,193.60 606.09,193.16 605.70,192.60 605.42,191.82 605.26,190.82 605.20,189.60 594.80,189.60 594.58,190.71 594.30,191.10 593.91,191.38 593.41,191.54 592.80,191.60 592.80,208.40 593.91,208.62 594.30,208.90 594.58,209.29 594.74,209.79">
        <request index="0"  response="100000000000001100000" foes="101000000000001100000" cont="0"/>
        <request index="1"  response="000011110000011100000" foes="011011111100011100000" cont="0"/>
        <request index="2"  response="000011100010011100000" foes="001011100010111100000" cont="0"/>
        <request index="3"  response="000010000010000010000" foes="001010000010000010000" cont="0"/>
        <request index="4"  response="001000000000000000000" foes="001010000010000001000" cont="1"/>
        <request index="5"  response="000000000000000000000" foes="100110000110000000111" cont="0"/>
        <request index="6"  response="000000000000000000000" foes="100110000110000000111" cont="0"/>
        <request index="7"  response="010001110000000000000" foes="010001111110000000110" cont="1"/>
        <request index="8"  response="000001100000000000100" foes="000001100000000000100" cont="1"/>
        <request index="9"  response="000001100000000000000" foes="010001100000000000000" cont="0"/>
        <request index="10" response="000011100000011110000" foes="011011100000011111100" cont="0"/>
        <request index="11" response="100011100000011100010" foes="110111100000011100010" cont="0"/>
        <request index="12" response="000000010000010000010" foes="010000010000010000010" cont="0"/>
        <request index="13" response="010000000000000000000" foes="110000001000010000010" cont="1"/>
        <request index="14" response="000000000000000000000" foes="100000000111110000110" cont="0"/>
        <request index="15" response="000000000000000000000" foes="100000000111110000110" cont="0"/>
        <request index="16" response="001000000000001110000" foes="101000000110001111110" cont="1"/>
        <request index="17" response="000000000100001100000" foes="100000000100001100000" cont="1"/>
        <request index="18" response="000000000010000001111" foes="000010000010000011111" cont="0"/>
        <request index="19" response="000000001111000000010" foes="000000011111010000010" cont="0"/>
        <request index="20" response="000111110000001100000" foes="000111110100001100001" cont="0"/>
    </junction>
    <junction id="A3" type="priority" x="900.00" y="200.00" incLanes="A4_A3_0 A4_A3_1 A4_A3_2 A2_A3_0 A2_A3_1" intLanes=":A3_0_0 :A3_0_1 :A3_2_0 :A3_2_1" shape="901.50,208.40 901.50,191.60 898.50,193.60 898.50,206.40">
        <request index="0" response="0000" foes="0000" cont="0"/>
        <request index="1" response="0000" foes="0000" cont="0"/>
        <request index="2" response="0000" foes="0000" cont="0"/>
        <request index="3" response="0000" foes="0000" cont="0"/>
    </junction>
    <junction id="A4" type="priority" x="1200.00" y="200.00" incLanes="S4N_A4_0 S4N_A4_1 A5_A4_0 A5_A4_1 S4S_A4_0 S4S_A4_1 A3_A4_0 A3_A4_1 A3_A4_2 :A4_w1_0 :A4_w2_0 :A4_w0_0" intLanes=":A4_0_0 :A4_1_0 :A4_2_0 :A4_3_0 :A4_18_0 :A4_5_0 :A4_5_1 :A4_19_0 :A4_20_0 :A4_9_0 :A4_10_0 :A4_11_0 :A4_12_0 :A4_21_0 :A4_14_0 :A4_14_1 :A4_22_0 :A4_23_0 :A4_c0_0 :A4_c1_0 :A4_c2_0" shape="1194.80,210.40 1205.20,210.40 1205.42,208.18 1205.70,207.40 1206.09,206.84 1206.59,206.51 1207.20,206.40 1207.20,193.60 1206.09,193.16 1205.70,192.60 1205.42,191.82 1205.26,190.82 1205.20,189.60 1194.80,189.60 1194.58,190.71 1194.30,191.10 1193.91,191.38 1193.41,191.54 1192.80,191.60 1192.80,208.40 1193.91,208.62 1194.30,208.90 1194.58,209.29 1194.74,209.79">
        <request index="0"  response="100000000000001100000" foes="101000000000001100000" cont="0"/>