<?xml version="1.0" encoding="UTF-8"?>

<!-- generated on 2024-10-22 15:39:45.750667 by osmWebWizard.py v1_20_0+0002-343658e7c64
<configuration>
    <net-file value="C:\Users\ethan\Sumo\2024-10-22-15-39-25\osm.net.xml.gz"/>
    <output-trip-file value="C:\Users\ethan\Sumo\2024-10-22-15-39-25\osm.passenger.trips.xml"/>
    <route-file value="C:\Users\ethan\Sumo\2024-10-22-15-39-25\osm.passenger.rou.xml"/>
    <prefix value="veh"/>
    <trip-attributes value="departLane=&quot;best&quot;"/>
    <fringe-start-attributes value="departSpeed=&quot;max&quot;"/>
    <vehicle-class value="passenger"/>
    <lanes value="True"/>
    <fringe-factor value="5"/>
    <allow-fringe.min-length value="1000.0"/>
    <via-edge-types value="highway.motorway,highway.motorway_link,highway.trunk_link,highway.primary_link,highway.secondary_link,highway.tertiary_link"/>
    <min-distance value="300.0"/>
    <min-distance.fringe value="10.0"/>
    <remove-loops value="True"/>
    <validate value="True"/>
    <insertion-density value="12.0"/>
</configuration>
-->

<!-- generated on 2024-10-22 15:39:45 by Eclipse SUMO duarouter Version 1.20.0
<configuration xmlns:xsi="http://www.w3.org/2001/XMLSchema-instance" xsi:noNamespaceSchemaLocation="http://sumo.dlr.de/xsd/duarouterConfiguration.xsd">

    <input>
        <net-file value="C:\Users\ethan\Sumo\2024-10-22-15-39-25\osm.net.xml.gz"/>
        <route-files value="C:\Users\ethan\Sumo\2024-10-22-15-39-25\osm.passenger.trips.xml"/>
    </input>

    <output>
        <output-file value="C:\Users\ethan\Sumo\2024-10-22-15-39-25\osm.passenger.trips.xml.tmp"/>
        <alternatives-output value="NUL"/>
        <write-trips value="true"/>
    </output>

    <processing>
        <remove-loops value="true"/>
    </processing>

    <time>
        <begin value="0.0"/>
        <end value="3600.0"/>
    </time>

    <report>
        <no-warnings value="true"/>
        <ignore-errors value="true"/>
        <no-step-log value="true"/>
    </report>

</configuration>
-->

<routes xmlns:xsi="http://www.w3.org/2001/XMLSchema-instance" xsi:noNamespaceSchemaLocation="http://sumo.dlr.de/xsd/routes_file.xsd">
    <vType id="veh_passenger" vClass="passenger"/>
    <trip id="veh0" type="veh_passenger" depart="0.00" departLane="best" from="23979039#0" to="1080366135#2"/>
    <trip id="veh1" type="veh_passenger" depart="2.96" departLane="best" from="-4525210#2" to="-28008220#16"/>
    <trip id="veh2" type="veh_passenger" depart="5.91" departLane="best" from="-28008220#5" to="27930287#3"/>
    <trip id="veh3" type="veh_passenger" depart="8.87" departLane="best" from="631036139#0" to="-168352120#4"/>
    <trip id="veh4" type="veh_passenger" depart="11.83" departLane="best" from="1001067100#0" to="-11985543#2"/>
    <trip id="veh5" type="veh_passenger" depart="14.78" departLane="best" from="-28008216#4" to="-1229465245#0"/>
    <trip id="veh6" type="veh_passenger" depart="17.74" departLane="best" from="117733395#0" to="-28006081#2"/>
    <trip id="veh7" type="veh_passenger" depart="20.70" departLane="best" from="273016374" to="1316892531#0"/>
    <trip id="veh8" type="veh_passenger" depart="23.65" departLane="best" from="-28008218#22" to="168337390#0"/>
    <trip id="veh9" type="veh_passenger" depart="26.61" departLane="best" from="4721511" to="1279205442#1"/>
    <trip id="veh10" type="veh_passenger" depart="29.57" departLane="best" from="-4525228#3" to="27944073#3"/>
    <trip id="veh11" type="veh_passenger" depart="32.52" departLane="best" from="657731584#0" to="-27929275#9"/>
    <trip id="veh13" type="veh_passenger" depart="38.44" departLane="best" from="-170130363#3" to="-172544006#1"/>
    <trip id="veh14" type="veh_passenger" depart="41.39" departLane="best" from="4810591#0" to="171629747#0"/>
    <trip id="veh15" type="veh_passenger" depart="44.35" departLane="best" from="4575267#0" to="28008211#0"/>
    <trip id="veh16" type="veh_passenger" depart="47.31" departLane="best" from="1288445031#0" to="808572851"/>
    <trip id="veh17" type="veh_passenger" depart="50.26" departLane="best" from="-79819868" to="153673384"/>
    <trip id="veh18" type="veh_passenger" depart="53.22" departLane="best" from="-4810279#1" to="175291641#0"/>
    <trip id="veh19" type="veh_passenger" depart="56.18" departLane="best" from="5008224#0" to="-165420771#3"/>
    <trip id="veh20" type="veh_passenger" depart="59.13" departLane="best" from="28004054#0" to="1279205442#0"/>
    <trip id="veh21" type="veh_passenger" depart="62.09" departLane="best" from="-28016218#0" to="-4741117#7"/>
    <trip id="veh22" type="veh_passenger" depart="65.04" departLane="best" from="-168317808#4" to="28019548#0"/>
    <trip id="veh23" type="veh_passenger" depart="68.00" departLane="best" from="-172545612#1" to="-4525210#7"/>
    <trip id="veh24" type="veh_passenger" depart="70.96" departLane="best" from="23914285#0" to="79707628#0"/>
    <trip id="veh25" type="veh_passenger" depart="73.91" departLane="best" from="-4516372#2" to="-79710862#1"/>
    <trip id="veh26" type="veh_passenger" depart="76.87" departLane="best" from="-258884957#1" to="172544006#3"/>
    <trip id="veh27" type="veh_passenger" depart="79.83" departLane="best" from="-27930621#1" to="28008209"/>
    <trip id="veh28" type="veh_passenger" depart="82.78" departLane="best" from="-27930596#13" to="-79819330#2"/>
    <trip id="veh29" type="veh_passenger" depart="85.74" departLane="best" from="154830384#0" to="27930620#0"/>
    <trip id="veh30" type="veh_passenger" depart="88.70" departLane="best" from="-4810584#22" to="4251234#0"/>
    <trip id="veh31" type="veh_passenger" depart="91.65" departLane="best" from="-28016218#2" to="11985681#7"/>
    <trip id="veh32" type="veh_passenger" depart="94.61" departLane="best" from="-28008182#12" to="79819328#0"/>
    <trip id="veh33" type="veh_passenger" depart="97.57" departLane="best" departSpeed="max" from="592731130#0" to="-4810584#5"/>
    <trip id="veh34" type="veh_passenger" depart="100.52" departLane="best" from="27683082#0" to="8056034#0"/>
    <trip id="veh35" type="veh_passenger" depart="103.48" departLane="best" from="746502334#0" to="1035353261#1"/>
    <trip id="veh36" type="veh_passenger" depart="106.44" departLane="best" from="4469144#3" to="-28156123#18"/>
    <trip id="veh37" type="veh_passenger" depart="109.39" departLane="best" from="154979769#0" to="-4422126#1"/>
    <trip id="veh38" type="veh_passenger" depart="112.35" departLane="best" from="-86326091#4" to="28008215#1"/>
    <trip id="veh39" type="veh_passenger" depart="115.31" departLane="best" from="987276834#0" to="-86326093#0"/>
    <trip id="veh40" type="veh_passenger" depart="118.26" departLane="best" from="-169763562" to="1279205443#0"/>
    <trip id="veh41" type="veh_passenger" depart="121.22" departLane="best" from="-175292105#6" to="-187325485#9"/>
    <trip id="veh42" type="veh_passenger" depart="124.18" departLane="best" from="-4516372#2" to="1001045464"/>
    <trip id="veh43" type="veh_passenger" depart="127.13" departLane="best" from="1287793113#0" to="-79823946"/>
    <trip id="veh44" type="veh_passenger" depart="130.09" departLane="best" from="987276833#0" to="1279205442#1"/>
    <trip id="veh45" type="veh_passenger" depart="133.05" departLane="best" from="808572851" to="4819650#1"/>
    <trip id="veh46" type="veh_passenger" depart="136.00" departLane="best" from="27930615#0" to="1287066365"/>
    <trip id="veh47" type="veh_passenger" depart="138.96" departLane="best" from="-4516372#2" to="-23979040"/>
    <trip id="veh48" type="veh_passenger" depart="141.92" departLane="best" from="-187325485#10" to="1006416216#1"/>
    <trip id="veh49" type="veh_passenger" depart="144.87" departLane="best" from="1006428687#0" to="8056018#3"/>
    <trip id="veh50" type="veh_passenger" depart="147.83" departLane="best" departSpeed="max" from="592731130#0" to="-4422126#4"/>
    <trip id="veh51" type="veh_passenger" depart="150.79" departLane="best" departSpeed="max" from="121174584#0" to="27930625#12"/>
    <trip id="veh52" type="veh_passenger" depart="153.74" departLane="best" from="718463#4" to="-5008405#1"/>
    <trip id="veh53" type="veh_passenger" depart="156.70" departLane="best" from="-4810279#1" to="23914596#0"/>
    <trip id="veh54" type="veh_passenger" depart="159.66" departLane="best" from="172544591#0" to="-27929216#0"/>
    <trip id="veh55" type="veh_passenger" depart="162.61" departLane="best" from="31509025#0" to="-1288445031#1"/>
    <trip id="veh56" type="veh_passenger" depart="165.57" departLane="best" from="4353084#1" to="1279205443#0"/>
    <trip id="veh57" type="veh_passenger" depart="168.53" departLane="best" from="1311842160#4" to="-4810755#1"/>
    <trip id="veh58" type="veh_passenger" depart="171.48" departLane="best" from="1074295407#3" to="79707628#6"/>
    <trip id="veh59" type="veh_passenger" depart="174.44" departLane="best" departSpeed="max" from="592731130#0" to="4810204#0"/>
    <trip id="veh60" type="veh_passenger" depart="177.40" departLane="best" from="-4810581#2" to="-1290072193"/>
    <trip id="veh61" type="veh_passenger" depart="180.35" departLane="best" departSpeed="max" from="592731130#0" to="-79824262#2"/>
    <trip id="veh62" type="veh_passenger" depart="183.31" departLane="best" from="-168352120#2" to="1128395117"/>
    <trip id="veh63" type="veh_passenger" depart="186.26" departLane="best" from="-160278564#2" to="28118590#9"/>
    <trip id="veh64" type="veh_passenger" depart="189.22" departLane="best" from="-31509116#5" to="-23979154#1"/>
    <trip id="veh65" type="veh_passenger" depart="192.18" departLane="best" departSpeed="max" from="1067005204" to="153213511"/>
    <trip id="veh66" type="veh_passenger" depart="195.13" departLane="best" from="-4469144#5" to="555566856"/>
    <trip id="veh67" type="veh_passenger" depart="198.09" departLane="best" from="1001067102#0" to="28008179#0"/>
    <trip id="veh68" type="veh_passenger" depart="201.05" departLane="best" from="-1069076529#5" to="28008211#0"/>
    <trip id="veh69" type="veh_passenger" depart="204.00" departLane="best" from="-28006248" to="-4810583#5"/>
    <trip id="veh70" type="veh_passenger" depart="206.96" departLane="best" from="1006536034" to="-1254847002"/>
    <trip id="veh71" type="veh_passenger" depart="209.92" departLane="best" from="-223982979#1" to="-28008220#28"/>
    <trip id="veh72" type="veh_passenger" depart="212.87" departLane="best" from="-655246674#2" to="168317808#5"/>
    <trip id="veh73" type="veh_passenger" depart="215.83" departLane="best" from="-28016266" to="-28008216#4"/>
    <trip id="veh74" type="veh_passenger" depart="218.79" departLane="best" from="163384328#0" to="196776973#0"/>
    <trip id="veh75" type="veh_passenger" depart="221.74" departLane="best" from="28016218#2" to="-671967031#19"/>
    <trip id="veh77" type="veh_passenger" depart="227.66" departLane="best" from="28022453#0" to="27929270#0"/>
    <trip id="veh78" type="veh_passenger" depart="230.61" departLane="best" from="28008207#1" to="23979207#0"/>
    <trip id="veh79" type="veh_passenger" depart="233.57" departLane="best" from="79710863" to="160278564#4"/>
    <trip id="veh80" type="veh_passenger" depart="236.53" departLane="best" from="1067005204" to="4375293#0"/>
    <trip id="veh81" type="veh_passenger" depart="239.48" departLane="best" from="-4705141#11" to="28004047#2"/>
    <trip id="veh82" type="veh_passenger" depart="242.44" departLane="best" from="-172544006#2" to="1006536035#3"/>
    <trip id="veh84" type="veh_passenger" depart="248.35" departLane="best" from="-28008212#2" to="27929347#0"/>
    <trip id="veh85" type="veh_passenger" depart="251.31" departLane="best" from="86326117#0" to="-172544591#3"/>
    <trip id="veh86" type="veh_passenger" depart="254.27" departLane="best" from="86326094#0" to="655246674#0"/>
    <trip id="veh87" type="veh_passenger" depart="257.22" departLane="best" from="5008224#0" to="-31509116#0"/>
    <trip id="veh88" type="veh_passenger" depart="260.18" departLane="best" from="-28004052" to="1006432267"/>
    <trip id="veh89" type="veh_passenger" depart="263.14" departLane="best" from="1001067100#0" to="4525210#8"/>
    <trip id="veh91" type="veh_passenger" depart="269.05" departLane="best" from="1006416217#2" to="489138126#0"/>
    <trip id="veh92" type="veh_passenger" depart="272.01" departLane="best" departSpeed="max" from="153673380" to="1286258899#0"/>
    <trip id="veh93" type="veh_passenger" depart="274.96" departLane="best" from="-998591179" to="4810575#0"/>
    <trip id="veh94" type="veh_passenger" depart="277.92" departLane="best" from="808536206" to="79707615#0"/>
    <trip id="veh95" type="veh_passenger" depart="280.88" departLane="best" from="-4810626#4" to="-27930596#3"/>
    <trip id="veh96" type="veh_passenger" depart="283.83" departLane="best" from="-1080366135#2" to="-28008185#4"/>
    <trip id="veh97" type="veh_passenger" depart="286.79" departLane="best" from="-79823946" to="86326093#1"/>
    <trip id="veh98" type="veh_passenger" depart="289.75" departLane="best" from="4469144#3" to="4375293#0"/>
    <trip id="veh99" type="veh_passenger" depart="292.70" departLane="best" from="1006440424#0" to="1001052089#0"/>
    <trip id="veh100" type="veh_passenger" depart="295.66" departLane="best" from="8056030#0" to="987276831#0"/>
    <trip id="veh101" type="veh_passenger" depart="298.62" departLane="best" from="1287793113#0" to="-28006372#0"/>
    <trip id="veh102" type="veh_passenger" depart="301.57" departLane="best" from="-27929275#9" to="4790991#0"/>
    <trip id="veh103" type="veh_passenger" depart="304.53" departLane="best" from="808536205#0" to="167121167#4"/>
    <trip id="veh104" type="veh_passenger" depart="307.48" departLane="best" from="-135920189#1" to="28019543#3"/>
    <trip id="veh105" type="veh_passenger" depart="310.44" departLane="best" from="154565320#1" to="-167121171#2"/>
    <trip id="veh106" type="veh_passenger" depart="313.40" departLane="best" departSpeed="max" from="121174584#0" to="-4810591#2"/>
    <trip id="veh107" type="veh_passenger" depart="316.35" departLane="best" from="-27929320#9" to="8056034#0"/>
    <trip id="veh108" type="veh_passenger" depart="319.31" departLane="best" from="-168317808#4" to="28003859#0"/>
    <trip id="veh109" type="veh_passenger" depart="322.27" departLane="best" from="168604474#2" to="27930286#0"/>
    <trip id="veh110" type="veh_passenger" depart="325.22" departLane="best" from="28019565#8" to="200899063"/>
    <trip id="veh111" type="veh_passenger" depart="328.18" departLane="best" from="628628148" to="-28156123#18"/>
    <trip id="veh112" type="veh_passenger" depart="331.14" departLane="best" from="-168604474#1" to="175291641#2"/>
    <trip id="veh113" type="veh_passenger" depart="334.09" departLane="best" from="1001045464" to="167121171#2"/>
    <trip id="veh114" type="veh_passenger" depart="337.05" departLane="best" from="28022453#1" to="8056034#2"/>
    <trip id="veh115" type="veh_passenger" depart="340.01" departLane="best" from="27929339#0" to="4810279#0"/>
    <trip id="veh116" type="veh_passenger" depart="342.96" departLane="best" from="-4810591#2" to="-28019565#4"/>
    <trip id="veh117" type="veh_passenger" depart="345.92" departLane="best" from="-163384340#4" to="1035353261#0"/>
    <trip id="veh119" type="veh_passenger" depart="351.83" departLane="best" from="-165420771#0" to="-28008182#14"/>
    <trip id="veh120" type="veh_passenger" depart="354.79" departLane="best" from="4469144#3" to="79708053#0"/>
    <trip id="veh121" type="veh_passenger" depart="357.75" departLane="best" departSpeed="max" from="592731130#0" to="555566859"/>
    <trip id="veh122" type="veh_passenger" depart="360.70" departLane="best" from="79710857" to="27929320#0"/>
    <trip id="veh123" type="veh_passenger" depart="363.66" departLane="best" from="-4810577#4" to="-28004045"/>
    <trip id="veh124" type="veh_passenger" depart="366.62" departLane="best" from="172545302#0" to="-86326091#1"/>
    <trip id="veh125" type="veh_passenger" depart="369.57" departLane="best" from="4741117#0" to="4810206#0"/>
    <trip id="veh126" type="veh_passenger" depart="372.53" departLane="best" from="-27929143#2" to="-79714744"/>
    <trip id="veh127" type="veh_passenger" depart="375.49" departLane="best" from="1006421038#0" to="187325485#5"/>
    <trip id="veh128" type="veh_passenger" depart="378.44" departLane="best" from="-175291641#1" to="153673384"/>
    <trip id="veh129" type="veh_passenger" depart="381.40" departLane="best" from="-4516399#4" to="-171879642#2"/>
    <trip id="veh130" type="veh_passenger" depart="384.36" departLane="best" from="-223982979#2" to="-4422127#15"/>
    <trip id="veh131" type="veh_passenger" depart="387.31" departLane="best" from="1128395118" to="671967031#18"/>
    <trip id="veh132" type="veh_passenger" depart="390.27" departLane="best" from="-4810587#2" to="170127998"/>
    <trip id="veh133" type="veh_passenger" depart="393.23" departLane="best" from="1001067102#1" to="4525210#2"/>
    <trip id="veh134" type="veh_passenger" depart="396.18" departLane="best" from="1006421035" to="-332193350#1"/>
    <trip id="veh135" type="veh_passenger" depart="399.14" departLane="best" from="-23914333#1" to="4422125#3"/>
    <trip id="veh136" type="veh_passenger" depart="402.10" departLane="best" from="-28016095#2" to="153673384"/>
    <trip id="veh137" type="veh_passenger" depart="405.05" departLane="best" departSpeed="max" from="1005337065" to="-1006440428#0"/>
    <trip id="veh138" type="veh_passenger" depart="408.01" departLane="best" from="-167121171#13" to="555566893#3"/>
    <trip id="veh139" type="veh_passenger" depart="410.97" departLane="best" from="671967035#0" to="135920189#0"/>
    <trip id="veh140" type="veh_passenger" depart="413.92" departLane="best" from="-4810577#13" to="167121171#14"/>
    <trip id="veh141" type="veh_passenger" depart="416.88" departLane="best" from="-27683100#2" to="-23979039#2"/>
    <trip id="veh142" type="veh_passenger" depart="419.84" departLane="best" from="4810582#0" to="655246673"/>
    <trip id="veh143" type="veh_passenger" depart="422.79" departLane="best" from="4516374#7" to="4819650#1"/>
    <trip id="veh144" type="veh_passenger" depart="425.75" departLane="best" departSpeed="max" from="662507163" to="-28008174#3"/>
    <trip id="veh145" type="veh_passenger" depart="428.70" departLane="best" from="332193350#0" to="175289882#2"/>
    <trip id="veh146" type="veh_passenger" depart="431.66" departLane="best" from="4375293#0" to="555566893#3"/>
    <trip id="veh147" type="veh_passenger" depart="434.62" departLane="best" from="987276833#0" to="175292105#2"/>
    <trip id="veh148" type="veh_passenger" depart="437.57" departLane="best" from="-27929270#9" to="-79707631#1"/>
    <trip id="veh149" type="veh_passenger" depart="440.53" departLane="best" from="555566857" to="808572852"/>
    <trip id="veh150" type="veh_passenger" depart="443.49" departLane="best" from="-4721530#0" to="555566891#5"/>
    <trip id="veh151" type="veh_passenger" depart="446.44" departLane="best" from="-1080366135#2" to="28008218#22"/>
    <trip id="veh152" type="veh_passenger" depart="449.40" departLane="best" from="-555566891#8" to="-79707634#2"/>
    <trip id="veh153" type="veh_passenger" depart="452.36" departLane="best" from="-4525210#0" to="489138128#0"/>
    <trip id="veh154" type="veh_passenger" depart="455.31" departLane="best" from="-4721530#0" to="-4469144#6"/>
    <trip id="veh155" type="veh_passenger" depart="458.27" departLane="best" from="4422126#2" to="175291641#2"/>
    <trip id="veh156" type="veh_passenger" depart="461.23" departLane="best" from="561680353" to="4810757#0"/>
    <trip id="veh157" type="veh_passenger" depart="464.18" departLane="best" from="1006536032" to="4810577#15"/>
    <trip id="veh158" type="veh_passenger" depart="467.14" departLane="best" from="4516374#4" to="28016095#0"/>
    <trip id="veh159" type="veh_passenger" depart="470.10" departLane="best" from="-1080366133" to="28004054#4"/>
    <trip id="veh160" type="veh_passenger" depart="473.05" departLane="best" from="5008210" to="489138128#0"/>
    <trip id="veh161" type="veh_passenger" depart="476.01" departLane="best" from="808536203" to="-4525228#1"/>
    <trip id="veh162" type="veh_passenger" depart="478.97" departLane="best" from="23979154#2" to="-86326091#1"/>
    <trip id="veh163" type="veh_passenger" depart="481.92" departLane="best" from="86326091#3" to="1286571609#2"/>
    <trip id="veh164" type="veh_passenger" depart="484.88" departLane="best" from="79819326#0" to="187325485#5"/>
    <trip id="veh165" type="veh_passenger" depart="487.84" departLane="best" from="808572851" to="27930625#12"/>
    <trip id="veh166" type="veh_passenger" depart="490.79" departLane="best" from="808525246#0" to="-4469144#11"/>
    <trip id="veh167" type="veh_passenger" depart="493.75" departLane="best" from="-175292105#3" to="1006416216#0"/>
    <trip id="veh168" type="veh_passenger" depart="496.71" departLane="best" from="28008211#0" to="-4810584#2"/>
    <trip id="veh169" type="veh_passenger" depart="499.66" departLane="best" from="172308466#0" to="1251326602#0"/>
    <trip id="veh170" type="veh_passenger" depart="502.62" departLane="best" from="-8056018#0" to="-165420771#0"/>
    <trip id="veh171" type="veh_passenger" depart="505.58" departLane="best" from="-4353079#3" to="-28005992#1"/>
    <trip id="veh172" type="veh_passenger" depart="508.53" departLane="best" from="-1001085502" to="-79707613"/>
    <trip id="veh173" type="veh_passenger" depart="511.49" departLane="best" from="1290072194#0" to="-28006372#2"/>
    <trip id="veh174" type="veh_passenger" depart="514.45" departLane="best" from="-28016097#1" to="27929296#0"/>
    <trip id="veh175" type="veh_passenger" depart="517.40" departLane="best" from="79707634#0" to="160278564#0"/>
    <trip id="veh176" type="veh_passenger" depart="520.36" departLane="best" from="-27929143#3" to="-5008210"/>
    <trip id="veh177" type="veh_passenger" depart="523.32" departLane="best" from="-28008167#2" to="4810279#0"/>
    <trip id="veh178" type="veh_passenger" depart="526.27" departLane="best" from="-4810583#2" to="987276829#0"/>
    <trip id="veh179" type="veh_passenger" depart="529.23" departLane="best" from="86326094#0" to="4790991#8"/>
    <trip id="veh180" type="veh_passenger" depart="532.19" departLane="best" from="23979040" to="1001045464"/>
    <trip id="veh181" type="veh_passenger" depart="535.14" departLane="best" from="-79819328#2" to="27930596#0"/>
    <trip id="veh182" type="veh_passenger" depart="538.10" departLane="best" from="-671967031#17" to="175290825"/>
    <trip id="veh183" type="veh_passenger" depart="541.06" departLane="best" from="-4810576#10" to="153213511"/>
    <trip id="veh184" type="veh_passenger" depart="544.01" departLane="best" from="1311842160#4" to="-4741115#5"/>
    <trip id="veh185" type="veh_passenger" depart="546.97" departLane="best" departSpeed="max" from="1005337065" to="167121167#4"/>
    <trip id="veh186" type="veh_passenger" depart="549.92" departLane="best" from="1006416217#0" to="-28008185#4"/>
    <trip id="veh187" type="veh_passenger" depart="552.88" departLane="best" departSpeed="max" from="1067005204" to="656839054#0"/>
    <trip id="veh188" type="veh_passenger" depart="555.84" departLane="best" from="4516374#7" to="27930617#0"/>
    <trip id="veh189" type="veh_passenger" depart="558.79" departLane="best" from="-168352108#1" to="1253188524#3"/>
    <trip id="veh190" type="veh_passenger" depart="561.75" departLane="best" from="215668326" to="-628628148"/>
    <trip id="veh191" type="veh_passenger" depart="564.71" departLane="best" from="4741125#0" to="-28019565#3"/>
    <trip id="veh192" type="veh_passenger" depart="567.66" departLane="best" from="-28006151#3" to="1080366135#0"/>
    <trip id="veh193" type="veh_passenger" depart="570.62" departLane="best" from="-28156123#18" to="1080366132#4"/>
    <trip id="veh194" type="veh_passenger" depart="573.58" departLane="best" from="4810627#4" to="163384340#4"/>
    <trip id="veh195" type="veh_passenger" depart="576.53" departLane="best" from="1001039628#0" to="-196776972"/>
    <trip id="veh196" type="veh_passenger" depart="579.49" departLane="best" from="11985543#1" to="28156120#0"/>
    <trip id="veh197" type="veh_passenger" depart="582.45" departLane="best" from="27683089#0" to="1006421041"/>
    <trip id="veh198" type="veh_passenger" depart="585.40" departLane="best" from="-175291641#1" to="1001067102#0"/>
    <trip id="veh199" type="veh_passenger" depart="588.36" departLane="best" from="27930623#0" to="8056022#4"/>
    <trip id="veh200" type="veh_passenger" depart="591.32" departLane="best" from="1253188524#3" to="1286258899#0"/>
    <trip id="veh201" type="veh_passenger" depart="594.27" departLane="best" from="-31509116#5" to="-4810584#5"/>
    <trip id="veh202" type="veh_passenger" depart="597.23" departLane="best" from="1006440428#1" to="4516399#0"/>
    <trip id="veh203" type="veh_passenger" depart="600.19" departLane="best" from="-27929270#3" to="876658455#0"/>
    <trip id="veh204" type="veh_passenger" depart="603.14" departLane="best" from="-168605805#2" to="8056015#0"/>
    <trip id="veh205" type="veh_passenger" depart="606.10" departLane="best" from="631036134#0" to="172545612#0"/>
    <trip id="veh207" type="veh_passenger" depart="612.01" departLane="best" from="-4810281#2" to="153213511"/>
    <trip id="veh208" type="veh_passenger" depart="614.97" departLane="best" from="-660547380#0" to="28016097#0"/>
    <trip id="veh209" type="veh_passenger" depart="617.93" departLane="best" departSpeed="max" from="1067005204" to="-4353084#2"/>
    <trip id="veh210" type="veh_passenger" depart="620.88" departLane="best" from="31509116#0" to="23914332#1"/>
    <trip id="veh211" type="veh_passenger" depart="623.84" departLane="best" from="-31509116#5" to="1276582180#2"/>
    <trip id="veh212" type="veh_passenger" depart="626.80" departLane="best" from="-187325485#9" to="4516399#5"/>
    <trip id="veh213" type="veh_passenger" depart="629.75" departLane="best" from="167121171#4" to="4741115#0"/>
    <trip id="veh214" type="veh_passenger" depart="632.71" departLane="best" from="-4516399#3" to="-4810626#4"/>
    <trip id="veh215" type="veh_passenger" depart="635.67" departLane="best" from="-27930596#12" to="-258884958#0"/>
    <trip id="veh216" type="veh_passenger" depart="638.62" departLane="best" from="-28019544#1" to="27934781#0"/>
    <trip id="veh217" type="veh_passenger" depart="641.58" departLane="best" from="-28005864" to="-154565324#2"/>
    <trip id="veh218" type="veh_passenger" depart="644.54" departLane="best" from="987276834#0" to="1290645109#0"/>
    <trip id="veh219" type="veh_passenger" depart="647.49" departLane="best" from="1001045461#0" to="-28006467"/>
    <trip id="veh220" type="veh_passenger" depart="650.45" departLane="best" from="1001048841#2" to="671967031#11"/>
    <trip id="veh221" type="veh_passenger" depart="653.41" departLane="best" from="167121171#4" to="27934781#4"/>
    <trip id="veh222" type="veh_passenger" depart="656.36" departLane="best" from="489138809#0" to="28156121#5"/>
    <trip id="veh223" type="veh_passenger" depart="659.32" departLane="best" from="79824264#0" to="1006421041"/>
    <trip id="veh224" type="veh_passenger" depart="662.28" departLane="best" from="-718463#8" to="28019566#0"/>
    <trip id="veh225" type="veh_passenger" depart="665.23" departLane="best" from="-4810757#4" to="8056018#2"/>
    <trip id="veh226" type="veh_passenger" depart="668.19" departLane="best" from="1001045463#0" to="28019543#1"/>
    <trip id="veh227" type="veh_passenger" depart="671.14" departLane="best" departSpeed="max" from="153673380" to="171629747#0"/>
    <trip id="veh228" type="veh_passenger" depart="674.10" departLane="best" from="-28008218#22" to="-28008215#1"/>
    <trip id="veh229" type="veh_passenger" depart="677.06" departLane="best" from="-655246672" to="27930596#13"/>
    <trip id="veh230" type="veh_passenger" depart="680.01" departLane="best" from="-913764529#2" to="-27930596#15"/>
    <trip id="veh232" type="veh_passenger" depart="685.93" departLane="best" from="-175292107" to="-117733395#2"/>
    <trip id="veh233" type="veh_passenger" depart="688.88" departLane="best" from="-8056034#2" to="154979766#0"/>
    <trip id="veh234" type="veh_passenger" depart="691.84" departLane="best" from="11984052#0" to="23979154#3"/>
    <trip id="veh235" type="veh_passenger" depart="694.80" departLane="best" from="-255026311#4" to="1035470064#0"/>
    <trip id="veh236" type="veh_passenger" depart="697.75" departLane="best" from="-1286258899#5" to="-79819328#5"/>
    <trip id="veh237" type="veh_passenger" depart="700.71" departLane="best" from="28008182#13" to="489138126#0"/>
    <trip id="veh238" type="veh_passenger" depart="703.67" departLane="best" from="28156123#0" to="-79819328#5"/>
    <trip id="veh239" type="veh_passenger" depart="706.62" departLane="best" from="-28019566#0" to="4810204#0"/>
    <trip id="veh240" type="veh_passenger" depart="709.58" departLane="best" from="-4302843#5" to="-168337390#1"/>
    <trip id="veh241" type="veh_passenger" depart="712.54" departLane="best" from="1074295407#3" to="-1288445031#1"/>
    <trip id="veh242" type="veh_passenger" depart="715.49" departLane="best" from="-998591179" to="-702738549#17"/>
    <trip id="veh243" type="veh_passenger" depart="718.45" departLane="best" from="273016374" to="4353081#0"/>
    <trip id="veh244" type="veh_passenger" depart="721.41" departLane="best" from="27681444#0" to="28019566#1"/>
    <trip id="veh245" type="veh_passenger" depart="724.36" departLane="best" from="8056017#0" to="-28006081#5"/>
    <trip id="veh246" type="veh_passenger" depart="727.32" departLane="best" from="1074295407#4" to="-27929143#6"/>
    <trip id="veh247" type="veh_passenger" depart="730.28" departLane="best" from="-23914596#4" to="27929270#4"/>
    <trip id="veh248" type="veh_passenger" depart="733.23" departLane="best" from="-160278564#2" to="-28008214#1"/>