<?xml version="1.0" encoding="UTF-8"?>

<!-- generated on 2024-10-22 15:39:42 by Eclipse SUMO polyconvert Version 1.20.0
<configuration xmlns:xsi="http://www.w3.org/2001/XMLSchema-instance" xsi:noNamespaceSchemaLocation="http://sumo.dlr.de/xsd/polyconvertConfiguration.xsd">

    <input>
        <net-file value="osm.net.xml.gz"/>
        <osm-files value="osm_bbox.osm.xml.gz"/>
        <osm.keep-full-type value="true"/>
        <osm.merge-relations value="1"/>
        <type-file value="${SUMO_HOME}/data/typemap/osmPolyconvert.typ.xml"/>
    </input>

    <output>
        <output-file value="osm.poly.xml.gz"/>
    </output>

    <report>
        <verbose value="true"/>
    </report>

</configuration>
-->

<additional xmlns:xsi="http://www.w3.org/2001/XMLSchema-instance" xsi:noNamespaceSchemaLocation="http://sumo.dlr.de/xsd/additional_file.xsd">
    <location netOffset="-549544.46,-5923721.92" convBoundary="-5.54,-1.31,2740.45,1329.31" origBoundary="-2.253685,53.460153,-2.212487,53.471892" projParameter="+proj=utm +zone=30 +ellps=WGS84 +datum=WGS84 +units=m +no_defs"/>

    <poly id="1001846165" type="natural.scrub" color="140,196,107" fill="1" layer="-4.00" shape="409.647973,1143.224219 411.380741,1138.180170 413.328336,1134.796166 408.181648,1136.232728 399.947029,1139.027460 393.762584,1141.298663 390.671720,1142.934953 387.949335,1144.252478 385.052546,1145.111998 326.478589,1154.218550 390.776720,1146.195985 409.647973,1143.224219"/>
    <poly id="1001846166" type="natural.scrub" color="140,196,107" fill="1" layer="-4.00" shape="431.140853,1140.936646 432.553743,1138.526094 434.080592,1136.639668 436.165715,1134.692382 438.238328,1133.301266 440.586437,1132.224589 443.336862,1131.396935 451.130254,1130.155260 451.999787,1132.678926 450.166881,1137.143350 431.140853,1140.936646"/>
    <poly id="1001846167" type="natural.scrub" color="140,196,107" fill="1" layer="-4.00" shape="462.770852,1134.862164 462.764229,1132.347613 464.452459,1129.639576 468.152962,1129.367151 470.339928,1131.604340 482.159302,1131.328724 462.770852,1134.862164"/>
    <poly id="1001846168" type="natural.scrub" color="140,196,107" fill="1" layer="-4.00" shape="485.161146,1130.581634 487.275784,1128.356532 490.848526,1128.238538 492.723709,1128.569891 494.409506,1129.233024 485.161146,1130.581634"/>
    <poly id="1001846169" type="natural.scrub" color="140,196,107" fill="1" layer="-4.00" shape="451.393773,1110.865524 450.202611,1094.798094 449.713884,1094.559285 449.028195,1094.741184 444.294094,1105.505670 441.734204,1110.919257 440.621821,1112.531907 451.393773,1110.865524"/>
    <poly id="1001846170" type="natural.scrub" color="140,196,107" fill="1" layer="-4.00" shape="426.933391,1118.807070 425.675272,1117.247269 433.428266,1109.774567 434.002519,1109.457976 434.651374,1109.620593 434.998475,1110.069299 434.891038,1110.813608 432.968913,1115.555246 430.841664,1115.833186 426.933391,1118.807070"/>
    <poly id="1001846171" type="natural.scrub" color="140,196,107" fill="1" layer="-4.00" shape="411.773157,1131.820229 411.397391,1131.571490 411.177815,1130.990620 411.428929,1130.470347 417.211831,1124.734736 417.557815,1124.660506 417.687868,1124.917777 417.467832,1126.895886 416.831442,1129.325766 416.479234,1129.989609 416.241629,1130.487772 414.256542,1131.134378 411.773157,1131.820229"/>
    <poly id="1001846172" type="natural.scrub" color="140,196,107" fill="1" layer="-4.00" shape="497.814184,1107.339633 501.872087,1107.171147 506.323029,1106.873308 506.657388,1106.643198 507.005845,1106.335354 506.996217,1105.990346 500.675999,1102.886106 496.547984,1100.895404 496.064603,1100.779033 495.604010,1101.018935 495.387955,1101.361558 495.329325,1101.883861 497.814184,1107.339633"/>
    <poly id="1001846173" type="natural.scrub" color="140,196,107" fill="1" layer="-4.00" shape="508.938393,1112.541861 510.975123,1112.663536 512.976732,1112.339799 514.017986,1111.805637 514.521701,1111.254664 515.073998,1110.503936 514.900309,1109.979176 512.173273,1108.592958 511.546971,1108.808854 510.141091,1110.551897 509.027459,1111.652721 508.938393,1112.541861"/>
    <poly id="1001846174" type="natural.scrub" color="140,196,107" fill="1" layer="-4.00" shape="512.648881,1116.975883 526.056599,1116.539159 526.324933,1116.274973 526.375870,1115.852723 526.201829,1115.361337 525.575128,1114.987548 522.551094,1114.065475 518.094740,1111.737499 517.661286,1111.922056 516.644159,1113.313176 515.677851,1114.293171 514.447328,1115.147986 513.754179,1115.407679 512.676041,1115.663300 512.648881,1116.975883"/>
    <poly id="1006836694" type="building.university" color="255,230,230" fill="1" layer="-1.00" shape="950.806315,933.066352 968.869364,900.192513 973.936512,903.139364 988.423402,911.126742 992.870591,913.688709 975.281451,946.311619 967.005044,961.666224 966.754453,962.130844 959.539997,958.226499 959.790350,957.784129 968.309377,942.710251 965.378969,941.099080 955.822353,935.823496 950.806315,933.066352"/>
    <poly id="1017309072" type="amenity.parking" color="184,184,179" fill="1" layer="-1.00" shape="931.083255,225.696653 929.791757,221.032205 911.805274,227.204557 931.239407,265.852138 934.883112,266.614181 946.042453,266.799942 955.530106,264.976338 959.549973,265.953808 971.533290,263.589433 975.283570,264.319267 978.210046,263.849826 982.666210,263.140815 978.734701,237.086207 975.812117,237.811588 974.897015,237.078630 973.889799,236.266808 964.586398,240.729210 965.129694,243.327371 958.341805,244.768093 955.093326,245.545639 953.096771,245.980509 952.549790,243.727218 928.400160,248.799049 923.721434,227.409456 931.083255,225.696653"/>
    <poly id="1025306998" type="building.house" color="255,230,230" fill="1" layer="-1.00" shape="2618.473780,749.013000 2619.759553,741.984349 2626.789652,743.252322 2625.503747,750.292096 2618.473780,749.013000"/>
    <poly id="1025306999" type="building.house" color="255,230,230" fill="1" layer="-1.00" shape="2618.473780,749.013000 2611.960615,747.828617 2613.239740,740.799891 2619.759553,741.984349 2618.473780,749.013000"/>
    <poly id="1025307000" type="building.house" color="255,230,230" fill="1" layer="-1.00" shape="2611.960615,747.828617 2605.275097,746.620092 2606.554335,739.580240 2613.239740,740.799891 2611.960615,747.828617"/>
    <poly id="1025307001" type="building.house" color="255,230,230" fill="1" layer="-1.00" shape="2605.275097,746.620092 2598.808271,745.447364 2599.663343,740.750444 2600.087377,738.418635 2606.554335,739.580240 2605.275097,746.620092"/>
    <poly id="1025307002" type="building.house" color="255,230,230" fill="1" layer="-1.00" shape="2599.663343,740.750444 2592.560458,739.459457 2591.210324,746.910198 2598.306561,748.201110 2598.808271,745.447364 2599.663343,740.750444"/>
    <poly id="1025307003" type="building.house" color="255,230,230" fill="1" layer="-1.00" shape="2591.210324,746.910198 2584.372365,745.677771 2585.722488,738.227029 2592.560458,739.459457 2591.210324,746.910198"/>
    <poly id="1025307004" type="building.house" color="255,230,230" fill="1" layer="-1.00" shape="2604.347978,713.865771 2605.832010,706.316375 2597.842478,704.748586 2596.358458,712.297984 2604.347978,713.865771"/>
    <poly id="1025307005" type="building.house" color="255,230,230" fill="1" layer="-1.00" shape="2604.347978,713.865771 2612.238162,715.410224 2613.722206,707.860830 2605.832010,706.316375 2604.347978,713.865771"/>
    <poly id="1025432379" type="building.semidetached_house" color="255,230,230" fill="1" layer="-1.00" shape="2668.938221,738.710330 2666.427554,730.382564 2661.444927,731.885260 2663.955725,740.201898 2668.938221,738.710330"/>
    <poly id="1025432380" type="building.semidetached_house" color="255,230,230" fill="1" layer="-1.00" shape="2668.938221,738.710330 2674.360443,737.078978 2671.849661,728.762334 2666.427554,730.382564 2668.938221,738.710330"/>
    <poly id="1025432381" type="building.semidetached_house" color="255,230,230" fill="1" layer="-1.00" shape="2695.788159,731.963764 2694.382860,726.952635 2685.485727,729.424581 2686.890912,734.446833 2695.788159,731.963764"/>
    <poly id="1025432382" type="building.semidetached_house" color="255,230,230" fill="1" layer="-1.00" shape="2685.485727,729.424581 2684.016733,724.167978 2692.913875,721.696029 2694.382860,726.952635 2685.485727,729.424581"/>
    <poly id="1025432383" type="building.semidetached_house" color="255,230,230" fill="1" layer="-1.00" shape="2700.446369,749.026987 2699.041203,744.004732 2690.144100,746.476669 2691.549274,751.498922 2700.446369,749.026987"/>
    <poly id="1025432384" type="building.semidetached_house" color="255,230,230" fill="1" layer="-1.00" shape="2690.144100,746.476669 2688.674994,741.231189 2697.578868,738.748198 2699.041203,744.004732 2690.144100,746.476669"/>
    <poly id="1025432385" type="building.semidetached_house" color="255,230,230" fill="1" layer="-1.00" shape="2675.978728,758.892863 2673.588371,767.344582 2668.419361,765.885671 2670.802949,757.445002 2675.978728,758.892863"/>
    <poly id="1025432386" type="building.semidetached_house" color="255,230,230" fill="1" layer="-1.00" shape="2673.588371,767.344582 2678.757501,768.792373 2681.141228,760.340584 2675.978728,758.892863 2673.588371,767.344582"/>
    <poly id="1025432387" type="building.semidetached_house" color="255,230,230" fill="1" layer="-1.00" shape="2695.260239,773.180146 2700.422718,774.627888 2702.806482,766.176110 2697.643994,764.728365 2695.260239,773.180146"/>
    <poly id="1025432388" type="building.semidetached_house" color="255,230,230" fill="1" layer="-1.00" shape="2697.643994,764.728365 2695.260239,773.180146 2690.084603,771.721138 2692.468227,763.280480 2697.643994,764.728365"/>
    <poly id="1025432389" type="building.semidetached_house" color="255,230,230" fill="1" layer="-1.00" shape="2706.522419,776.575530 2711.684768,778.034410 2714.068551,769.582637 2708.906071,768.134880 2706.522419,776.575530"/>
    <poly id="1025432390" type="building.semidetached_house" color="255,230,230" fill="1" layer="-1.00" shape="2708.906071,768.134880 2706.522419,776.575530 2701.346668,775.127635 2703.737072,766.675930 2708.906071,768.134880"/>
    <poly id="1025432391" type="building.house" color="255,230,230" fill="1" layer="-1.00" shape="2721.973217,799.866161 2726.094685,800.590366 2727.546677,792.350832 2723.425201,791.626626 2723.106334,793.447786 2721.973217,799.866161"/>
    <poly id="1025432392" type="building.house" color="255,230,230" fill="1" layer="-1.00" shape="2721.973217,799.866161 2721.661481,801.642896 2717.427409,800.895199 2718.589407,794.265745 2718.865617,792.700014 2723.106334,793.447786 2721.973217,799.866161"/>
    <poly id="1025432393" type="building.house" color="255,230,230" fill="1" layer="-1.00" shape="2717.427409,800.895199 2717.066259,802.938415 2712.792359,802.190282 2714.315499,793.517612 2718.589407,794.265745 2717.427409,800.895199"/>
    <poly id="1025435858" type="building.semidetached_house" color="255,230,230" fill="1" layer="-1.00" shape="2657.696698,792.425540 2665.416228,793.779059 2666.167000,789.514917 2667.763988,789.788434 2668.471988,785.790847 2657.810350,783.926452 2656.903729,789.078964 2658.248833,789.316321 2657.696698,792.425540"/>
    <poly id="1025435859" type="building.semidetached_house" color="255,230,230" fill="1" layer="-1.00" shape="2657.696698,792.425540 2665.416228,793.779059 2664.665334,798.054325 2666.262197,798.338966 2665.560961,802.325501 2654.899360,800.461113 2655.812615,795.308674 2657.151080,795.545957 2657.696698,792.425540"/>
    <poly id="1025435860" type="building.semidetached_house" color="255,230,230" fill="1" layer="-1.00" shape="2698.184857,800.538133 2690.471862,799.195759 2689.721070,803.459897 2688.117449,803.186300 2687.416196,807.172832 2698.071010,809.048346 2698.977795,803.884716 2697.639212,803.658546 2698.184857,800.538133"/>
    <poly id="1025435861" type="building.semidetached_house" color="255,230,230" fill="1" layer="-1.00" shape="2698.184857,800.538133 2690.471862,799.195759 2691.222779,794.920496 2689.619279,794.635774 2690.327297,790.638191 2700.982270,792.502586 2700.075480,797.666214 2698.730380,797.428846 2698.184857,800.538133"/>
    <poly id="1025435862" type="building.semidetached_house" color="255,230,230" fill="1" layer="-1.00" shape="2672.686616,825.012346 2674.191992,817.340817 2669.925595,816.514923 2670.235225,814.927306 2666.240500,814.148917 2664.171810,824.740400 2669.319235,825.742899 2669.579574,824.410639 2672.686616,825.012346"/>
    <poly id="1025435863" type="building.semidetached_house" color="255,230,230" fill="1" layer="-1.00" shape="2672.686616,825.012346 2674.191992,817.340817 2678.458264,818.177839 2678.767896,816.590223 2682.762740,817.357498 2680.687253,827.960025 2675.539832,826.957513 2675.800173,825.625253 2672.686616,825.012346"/>
    <poly id="1025435864" type="building.semidetached_house" color="255,230,230" fill="1" layer="-1.00" shape="2694.625809,828.859289 2696.018493,821.175396 2691.738213,820.404960 2692.028058,818.806000 2688.025965,818.094268 2686.109660,828.709676 2691.271089,829.645597 2691.511642,828.301993 2694.625809,828.859289"/>
    <poly id="1025435865" type="building.semidetached_house" color="255,230,230" fill="1" layer="-1.00" shape="2694.625809,828.859289 2696.018493,821.175396 2700.292133,821.945763 2700.581981,820.346804 2704.590585,821.069744 2702.667483,831.696197 2697.506057,830.760264 2697.746489,829.427785 2694.625809,828.859289"/>
    <poly id="1025435866" type="building.semidetached_house" color="255,230,230" fill="1" layer="-1.00" shape="2651.225951,821.115152 2652.618567,813.431247 2648.338274,812.660850 2648.628104,811.061887 2644.619483,810.338994 2642.703150,820.965543 2647.871234,821.901490 2648.111775,820.557884 2651.225951,821.115152"/>
    <poly id="1025435867" type="building.semidetached_house" color="255,230,230" fill="1" layer="-1.00" shape="2651.225951,821.115152 2652.618567,813.431247 2656.892221,814.201574 2657.182054,812.602612 2661.184033,813.325443 2659.267663,823.951986 2654.106222,823.016100 2654.346642,821.683619 2651.225951,821.115152"/>
    <poly id="1033973070" type="building.university" color="255,230,230" fill="1" layer="-1.00" shape="1428.957775,553.219229 1432.314149,555.358196 1454.859903,567.806323 1461.072633,558.716523 1439.819975,543.945824 1437.118058,542.069800 1428.957775,553.219229"/>
    <poly id="1033973075" type="highway.pedestrian" color="white" fill="1" layer="0.00" shape="1063.890213,803.988232 1075.713760,789.127891 1066.168977,792.040980 1061.124819,800.598602 1063.890213,803.988232"/>
    <poly id="1033973075#1" type="landuse.grass" color="white" fill="1" layer="0.00" shape="1063.890213,803.988232 1075.713760,789.127891 1066.168977,792.040980 1061.124819,800.598602 1063.890213,803.988232"/>
    <poly id="1033973076" type="landuse.grass" color="194,194,130" fill="1" layer="-3.00" shape="1103.279690,798.345861 1104.273836,796.643089 1110.242976,799.677619 1114.147866,792.743383 1094.792521,781.833018 1082.463989,786.173804 1089.506615,790.020864 1089.045577,790.917142 1103.279690,798.345861"/>
    <poly id="1033973077" type="highway.pedestrian" color="white" fill="1" layer="0.00" shape="1072.477600,786.923705 1073.237544,787.254487 1085.474677,782.768061 1085.997073,782.962792 1088.734460,778.419271 1077.083558,772.164206 1074.386579,777.275593 1075.959239,780.452206 1072.477600,786.923705"/>
    <poly id="1033973077#1" type="landuse.grass" color="white" fill="1" layer="0.00" shape="1072.477600,786.923705 1073.237544,787.254487 1085.474677,782.768061 1085.997073,782.962792 1088.734460,778.419271 1077.083558,772.164206 1074.386579,777.275593 1075.959239,780.452206 1072.477600,786.923705"/>
    <poly id="1033973078" type="landuse.grass" color="194,194,130" fill="1" layer="-3.00" shape="1111.968046,802.878128 1116.987765,794.131155 1118.419443,794.969806 1119.206499,798.349421 1126.851008,802.403249 1129.580081,801.119593 1140.828177,807.159082 1136.488021,815.679660 1111.968046,802.878128"/>
    <poly id="1033973079" type="highway.pedestrian" color="white" fill="1" layer="0.00" shape="1220.693680,845.009087 1225.784595,835.829074 1217.613943,831.324399 1212.523158,840.493296 1220.693680,845.009087"/>
    <poly id="1033973079#1" type="landuse.grass" color="white" fill="1" layer="0.00" shape="1220.693680,845.009087 1225.784595,835.829074 1217.613943,831.324399 1212.523158,840.493296 1220.693680,845.009087"/>
    <poly id="1033973080" type="highway.pedestrian" color="white" fill="1" layer="0.00" shape="1218.666794,829.722414 1226.692005,834.169900 1230.753969,827.459963 1226.108752,824.795514 1220.190326,826.946116 1218.666794,829.722414"/>
    <poly id="1033973080#1" type="landuse.grass" color="white" fill="1" layer="0.00" shape="1218.666794,829.722414 1226.692005,834.169900 1230.753969,827.459963 1226.108752,824.795514 1220.190326,826.946116 1218.666794,829.722414"/>
    <poly id="1033973081" type="highway.pedestrian" color="white" fill="1" layer="0.00" shape="1215.598646,816.193617 1220.247576,818.513188 1216.492245,825.727094 1213.553246,826.774803 1210.449896,825.195004 1215.598646,816.193617"/>
    <poly id="1033973081#1" type="landuse.grass" color="white" fill="1" layer="0.00" shape="1215.598646,816.193617 1220.247576,818.513188 1216.492245,825.727094 1213.553246,826.774803 1210.449896,825.195004 1215.598646,816.193617"/>
    <poly id="1033973082" type="landuse.grass" color="194,194,130" fill="1" layer="-3.00" shape="1220.744834,806.813922 1232.861763,813.541640 1239.310789,811.441250 1244.132308,802.625525 1227.870878,794.206665 1220.744834,806.813922"/>
    <poly id="1033973083" type="highway.pedestrian" color="white" fill="1" layer="0.00" shape="1181.107695,823.167043 1199.290269,833.208489 1209.698753,814.138787 1209.540202,811.589222 1192.771101,802.219326 1181.107695,823.167043"/>
    <poly id="1033973083#1" type="landuse.grass" color="white" fill="1" layer="0.00" shape="1181.107695,823.167043 1199.290269,833.208489 1209.698753,814.138787 1209.540202,811.589222 1192.771101,802.219326 1181.107695,823.167043"/>
    <poly id="1033973084" type="highway.pedestrian" color="white" fill="1" layer="0.00" shape="1156.586838,809.842344 1156.925778,809.189538 1185.998317,799.220582 1190.654394,801.495696 1179.087506,822.110671 1156.586838,809.842344"/>
    <poly id="1033973084#1" type="landuse.grass" color="white" fill="1" layer="0.00" shape="1156.586838,809.842344 1156.925778,809.189538 1185.998317,799.220582 1190.654394,801.495696 1179.087506,822.110671 1156.586838,809.842344"/>
    <poly id="1033973085" type="highway.pedestrian" color="white" fill="1" layer="0.00" shape="1153.675965,808.264644 1184.075585,797.742463 1138.701500,772.645581 1137.888626,773.538086 1145.262888,804.069029 1153.675965,808.264644"/>
    <poly id="1033973085#1" type="landuse.grass" color="white" fill="1" layer="0.00" shape="1153.675965,808.264644 1184.075585,797.742463 1138.701500,772.645581 1137.888626,773.538086 1145.262888,804.069029 1153.675965,808.264644"/>
    <poly id="1033973086" type="highway.pedestrian" color="white" fill="1" layer="0.00" shape="1101.121085,779.820159 1142.494626,802.192461 1135.378552,771.107985 1131.815346,769.067148 1101.121085,779.820159"/>
    <poly id="1033973086#1" type="landuse.grass" color="white" fill="1" layer="0.00" shape="1101.121085,779.820159 1142.494626,802.192461 1135.378552,771.107985 1131.815346,769.067148 1101.121085,779.820159"/>
    <poly id="1033973087" type="highway.pedestrian" color="white" fill="1" layer="0.00" shape="1099.072311,778.329601 1128.146935,768.171169 1128.672221,767.475852 1088.758437,746.387662 1079.347923,762.809172 1080.367489,768.661247 1099.072311,778.329601"/>
    <poly id="1033973087#1" type="landuse.grass" color="white" fill="1" layer="0.00" shape="1099.072311,778.329601 1128.146935,768.171169 1128.672221,767.475852 1088.758437,746.387662 1079.347923,762.809172 1080.367489,768.661247 1099.072311,778.329601"/>
    <poly id="1033973088" type="highway.pedestrian" color="white" fill="1" layer="0.00" shape="1239.745523,756.071587 1214.913316,801.477636 1197.882199,792.394190 1222.619962,746.497495 1239.745523,756.071587"/>
    <poly id="1033973088#1" type="landuse.grass" color="white" fill="1" layer="0.00" shape="1239.745523,756.071587 1214.913316,801.477636 1197.882199,792.394190 1222.619962,746.497495 1239.745523,756.071587"/>
    <poly id="1033982620" type="highway.pedestrian" color="white" fill="1" layer="0.00" shape="1246.160499,507.796016 1245.761449,509.716540 1249.950477,510.373420 1254.568361,510.044689 1258.770999,509.433354 1262.556887,508.060979 1255.944957,504.885852 1252.960788,506.411474 1249.462390,507.597798 1246.160499,507.796016"/>
    <poly id="1033982620#1" type="landuse.grass" color="white" fill="1" layer="0.00" shape="1246.160499,507.796016 1245.761449,509.716540 1249.950477,510.373420 1254.568361,510.044689 1258.770999,509.433354 1262.556887,508.060979 1255.944957,504.885852 1252.960788,506.411474 1249.462390,507.597798 1246.160499,507.796016"/>
    <poly id="1033982623" type="highway.pedestrian" color="white" fill="1" layer="0.00" shape="1257.274586,501.629066 1266.590078,506.535498 1267.669185,506.825232 1268.537457,506.345006 1277.364661,496.125928 1282.117787,491.860056 1287.028285,488.396954 1289.699387,486.968126 1280.928844,482.011870 1276.140566,483.985401 1271.348421,486.937986 1267.086846,490.563835 1261.319648,498.379170 1257.274586,501.629066"/>
    <poly id="1033982623#1" type="landuse.grass" color="white" fill="1" layer="0.00" shape="1257.274586,501.629066 1266.590078,506.535498 1267.669185,506.825232 1268.537457,506.345006 1277.364661,496.125928 1282.117787,491.860056 1287.028285,488.396954 1289.699387,486.968126 1280.928844,482.011870 1276.140566,483.985401 1271.348421,486.937986 1267.086846,490.563835 1261.319648,498.379170 1257.274586,501.629066"/>
    <poly id="1033982624" type="highway.pedestrian" color="white" fill="1" layer="0.00" shape="1288.753904,479.180869 1298.121137,483.598373 1304.139498,482.695051 1305.917952,478.452881 1301.433217,478.126556 1294.172521,478.482489 1288.753904,479.180869"/>
    <poly id="1033982624#1" type="landuse.grass" color="white" fill="1" layer="0.00" shape="1288.753904,479.180869 1298.121137,483.598373 1304.139498,482.695051 1305.917952,478.452881 1301.433217,478.126556 1294.172521,478.482489 1288.753904,479.180869"/>
    <poly id="1037326450" type="highway.pedestrian" color="white" fill="1" layer="0.00" shape="1039.469206,806.130407 1043.001871,799.848572 1034.296265,795.060350 1030.822639,801.409578 1039.469206,806.130407"/>
    <poly id="1037326450#1" type="landuse.grass" color="white" fill="1" layer="0.00" shape="1039.469206,806.130407 1043.001871,799.848572 1034.296265,795.060350 1030.822639,801.409578 1039.469206,806.130407"/>
    <poly id="1037326451" type="highway.pedestrian" color="white" fill="1" layer="0.00" shape="1029.424112,789.389641 1046.483296,798.361515 1048.276306,795.209759 1041.385205,785.879243 1033.793228,781.870620 1029.424112,789.389641"/>
    <poly id="1037326451#1" type="landuse.grass" color="white" fill="1" layer="0.00" shape="1029.424112,789.389641 1046.483296,798.361515 1048.276306,795.209759 1041.385205,785.879243 1033.793228,781.870620 1029.424112,789.389641"/>
    <poly id="1037326452" type="landuse.grass" color="194,194,130" fill="1" layer="-3.00" shape="999.250980,773.757918 1000.161235,774.312814 1013.325952,749.486587 1038.989295,762.822741 1049.463874,744.354209 1022.638199,729.815097 1018.259035,730.814163 1004.771952,754.735725 1003.540551,764.980779 999.250980,773.757918"/>
    <poly id="1037326453" type="highway.pedestrian" color="white" fill="1" layer="0.00" shape="1053.427905,746.788680 1060.882185,750.640096 1060.394240,751.569467 1050.011901,754.573769 1049.193276,754.142229 1053.427905,746.788680"/>
    <poly id="1037326453#1" type="landuse.grass" color="white" fill="1" layer="0.00" shape="1053.427905,746.788680 1060.882185,750.640096 1060.394240,751.569467 1050.011901,754.573769 1049.193276,754.142229 1053.427905,746.788680"/>
    <poly id="1037326454" type="landuse.grass" color="194,194,130" fill="1" layer="-3.00" shape="1021.245907,726.529169 1052.022244,743.513725 1054.001052,739.752025 1027.719193,726.509318 1024.283172,726.227835 1021.245907,726.529169"/>
    <poly id="1037326455" type="landuse.grass" color="194,194,130" fill="1" layer="-3.00" shape="1054.436055,744.396232 1062.158344,748.639927 1063.411758,746.283482 1062.670718,744.183864 1056.486221,740.791061 1054.436055,744.396232"/>
    <poly id="1037326456" type="highway.pedestrian" color="white" fill="1" layer="0.00" shape="1047.910103,760.525985 1050.866557,762.193114 1051.751982,760.722816 1058.391998,764.354130 1057.552325,765.891673 1062.608311,768.649354 1064.419496,765.041631 1066.554603,762.805875 1069.751354,757.521811 1069.324316,755.859465 1065.383880,753.703384 1049.598462,757.228473 1047.910103,760.525985"/>
    <poly id="1037326456#1" type="landuse.grass" color="white" fill="1" layer="0.00" shape="1047.910103,760.525985 1050.866557,762.193114 1051.751982,760.722816 1058.391998,764.354130 1057.552325,765.891673 1062.608311,768.649354 1064.419496,765.041631 1066.554603,762.805875 1069.751354,757.521811 1069.324316,755.859465 1065.383880,753.703384 1049.598462,757.228473 1047.910103,760.525985"/>
    <poly id="1037326457" type="highway.pedestrian" color="white" fill="1" layer="0.00" shape="1041.051689,776.707824 1046.271251,779.689757 1045.508810,775.865377 1041.051689,776.707824"/>
    <poly id="1037326457#1" type="landuse.grass" color="white" fill="1" layer="0.00" shape="1041.051689,776.707824 1046.271251,779.689757 1045.508810,775.865377 1041.051689,776.707824"/>
    <poly id="1037326458" type="highway.pedestrian" color="white" fill="1" layer="0.00" shape="1049.194858,781.323156 1054.548125,784.217519 1060.360032,773.398387 1047.830306,775.445149 1049.194858,781.323156"/>
    <poly id="1037326458#1" type="landuse.grass" color="white" fill="1" layer="0.00" shape="1049.194858,781.323156 1054.548125,784.217519 1060.360032,773.398387 1047.830306,775.445149 1049.194858,781.323156"/>
    <poly id="1037326459" type="highway.pedestrian" color="white" fill="1" layer="0.00" shape="1037.592045,774.912937 1045.022161,773.568212 1043.798292,768.192381 1041.666151,767.045864 1037.592045,774.912937"/>
    <poly id="1037326459#1" type="landuse.grass" color="white" fill="1" layer="0.00" shape="1037.592045,774.912937 1045.022161,773.568212 1043.798292,768.192381 1041.666151,767.045864 1037.592045,774.912937"/>
    <poly id="1037326460" type="highway.pedestrian" color="white" fill="1" layer="0.00" shape="1045.035248,761.162820 1044.479973,762.180481 1046.844721,773.242785 1058.488594,771.464701 1059.849638,768.975893 1056.866164,767.352974 1055.816544,769.277684 1046.971610,764.476823 1047.919751,762.729044 1045.035248,761.162820"/>
    <poly id="1037326460#1" type="landuse.grass" color="white" fill="1" layer="0.00" shape="1045.035248,761.162820 1044.479973,762.180481 1046.844721,773.242785 1058.488594,771.464701 1059.849638,768.975893 1056.866164,767.352974 1055.816544,769.277684 1046.971610,764.476823 1047.919751,762.729044 1045.035248,761.162820"/>
    <poly id="1037326461" type="amenity.bicycle_parking" color="237,199,199" fill="1" layer="-1.00" shape="1055.816544,769.277684 1056.866164,767.352974 1057.552325,765.891673 1058.391998,764.354130 1051.751982,760.722816 1050.866557,762.193114 1047.919751,762.729044 1046.971610,764.476823 1055.816544,769.277684"/>
    <poly id="1038112928" type="highway.pedestrian" color="white" fill="1" layer="0.00" shape="1335.135849,503.978448 1345.676110,508.586672 1346.878052,506.096234 1336.337189,501.543631 1335.135849,503.978448"/>
    <poly id="1038112928#1" type="landuse.grass" color="white" fill="1" layer="0.00" shape="1335.135849,503.978448 1345.676110,508.586672 1346.878052,506.096234 1336.337189,501.543631 1335.135849,503.978448"/>
    <poly id="1041087782" type="building.university" color="255,230,230" fill="1" layer="-1.00" shape="1026.753668,801.343850 1031.242750,793.158547 1024.510296,789.481779 1037.692977,765.468010 1014.165976,752.265943 996.802887,784.791057 1026.753668,801.343850"/>
    <poly id="1046894373" type="leisure.playground" color="207,245,201" fill="1" layer="-2.00" shape="1479.607874,1147.006209 1483.044871,1170.563758 1488.017728,1169.271124 1491.104209,1166.845547 1493.839936,1163.704122 1495.226857,1160.058604 1495.102067,1156.241019 1494.269759,1153.394898 1492.107592,1150.133897 1489.501495,1148.025221 1486.818342,1146.905934 1483.437190,1146.491192 1479.607874,1147.006209"/>
    <poly id="1056846280" type="amenity.parking" color="184,184,179" fill="1" layer="-1.00" shape="2531.631200,1203.058597 2527.177713,1202.976216 2527.571567,1182.263746 2532.018314,1182.357178 2531.631200,1203.058597"/>
    <poly id="1062983332" type="landuse.grass" color="194,194,130" fill="1" layer="-3.00" shape="1380.231251,1054.335037 1382.301348,1061.845147 1383.257117,1063.713483 1385.285884,1065.192827 1388.210050,1065.513572 1390.658701,1064.371688 1393.820675,1061.101280 1394.618254,1059.162804 1394.348221,1057.112704 1393.394490,1055.055245 1391.362609,1053.865141 1384.958384,1050.591918 1382.913636,1049.980234 1381.154902,1050.550991 1380.060779,1052.286009 1380.231251,1054.335037"/>
    <poly id="1062983333" type="landuse.grass" color="194,194,130" fill="1" layer="-3.00" shape="1355.594889,1086.480216 1371.799474,1085.875696 1374.241887,1085.312291 1376.302301,1084.466626 1377.877982,1083.014940 1381.939892,1076.928189 1382.458263,1074.408152 1381.994358,1071.866420 1374.527593,1049.500593 1373.474580,1048.031751 1372.115561,1047.238306 1369.480337,1047.209957 1367.217837,1048.943535 1368.848409,1049.795530 1354.873565,1075.157260 1353.179015,1074.082061 1351.501375,1076.990172 1350.795669,1079.029777 1351.056268,1081.958732 1352.111732,1083.817007 1353.264311,1085.286916 1355.594889,1086.480216"/>